/batch
/config,noeldb,1     ! force off writing results to database
*get,_wallstrt,active,,time,wall
! ANSYS input file written by Workbench version 2019 R3
! File used for geometry attach: C:\Users\Rajatsurya\OneDrive\Documents\antenna booming mechanism fea analysis\blocking part fea analysis_files\dp0\SYS\DM\SYS.agdb
/title,blocking part fea analysis--Static Structural (A5)
*DIM,_wb_ProjectScratch_dir,string,248
_wb_ProjectScratch_dir(1) = 'C:\Users\Rajatsurya\OneDrive\Documents\antenna booming mechanism fea analysis\_ProjectScratch\ScrF42E\'
*DIM,_wb_SolverFiles_dir,string,248
_wb_SolverFiles_dir(1) = 'C:\Users\Rajatsurya\OneDrive\Documents\antenna booming mechanism fea analysis\blocking part fea analysis_files\dp0\SYS\MECH\'
*DIM,_wb_userfiles_dir,string,248
_wb_userfiles_dir(1) = 'C:\Users\Rajatsurya\OneDrive\Documents\antenna booming mechanism fea analysis\blocking part fea analysis_files\user_files\'
/com,--- Data in consistent NMM units. See Solving Units in the help system for more information.
/units,MPA
/nopr
/wb,file,start              !  signify a WB generated input file
/prep7
! Turn off shape checking because checks already performed inside WB mesher.
! See help system for more information.
SHPP,OFF,,NOWARN
/nolist
etcon,set             ! allow ANSYS to choose best KEYOP's for 180x elements
/com,*********** Nodes for the whole assembly ***********
nblock,3,,1029
(1i9,3e20.9e3)
        1     4.118562285E+01     2.755203085E+01     0.000000000E+00
        2     3.530488186E+01     3.467707655E+01     0.000000000E+00
        3    -1.761950149E+01     4.307128093E+01     0.000000000E+00
        4    -2.394887222E+01     4.334526103E+01     0.000000000E+00
        5    -2.743229109E+01     3.538486383E+01     0.000000000E+00
        6    -4.174282553E+01     2.202012158E+01     0.000000000E+00
        7    -4.118978383E+01    -2.759562682E+01     0.000000000E+00
        8    -3.539616010E+01    -3.482708296E+01     0.000000000E+00
        9     1.762119375E+01    -4.307085602E+01     0.000000000E+00
       10     2.395356156E+01    -4.334337160E+01     0.000000000E+00
       11     2.743645412E+01    -3.538200941E+01     0.000000000E+00
       12     4.174298131E+01    -2.201973132E+01     0.000000000E+00
       13     3.556861830E+01    -4.251589907E+01     0.000000000E+00
       14    -3.495048268E+01    -4.138213589E+01     0.000000000E+00
       15    -4.154043826E+01    -4.140627749E+01     0.000000000E+00
       16    -4.166218903E+01     4.186846361E+01     0.000000000E+00
       17    -4.074671587E+01     3.561745067E+01     0.000000000E+00
       18    -4.155589995E+01    -3.455595417E+01     0.000000000E+00
       19     4.177209994E+01    -4.187095237E+01     0.000000000E+00
       20     4.082459076E+01    -3.558187991E+01     0.000000000E+00
! ... 917 like lines cut
/wb,elem,start            !  set before creation of elements
/com,*********** Elements for Body 1 "blocking part" ***********
et,1,186
keyo,1,2,1          ! set full integration on SOLID186
eblock,19,solid,,98
(19i9)
        1        1        1        1        0        0        0        0       20        0        1        8       35       48       36       89       62       49       61
      333      435      438      334      509      468      467      505      335      436      465      439
        1        1        1        1        0        0        0        0       20        0        2       36       48      232      233       61       49      171      172
      438      466      870      440      467      469      762      507      439      465      763      765
        1        1        1        1        0        0        0        0       20        0        3       35      231      232       48       62      170      171       49
      437      869      466      435      510      760      469      468      436      761      763      465
        1        1        1        1        0        0        0        0       20        0        4        2       39       47       40       95       58       50       57
      304      447      450      305      495      471      470      491      306      448      463      451
        1        1        1        1        0        0        0        0       20        0        5       40       47      211      212       57       50      191      192
      450      464      836      452      470      472      802      493      451      463      803      805
        1        1        1        1        0        0        0        0       20        0        6       39      210      211       47       58      190      191       50
      449      835      464      447      496      800      472      471      448      801      803      463
        1        1        1        1        0        0        0        0       20        0        7       20       33       27       46       77       64       70       51
      383      409      410      384      515      514      474      475      385      429      411      462
        1        1        1        1        0        0        0        0       20        0        8       20      280      279       33       77      124      123       64
      386      921      431      383      553      654      517      515      385      657      655      429
        1        1        1        1        0        0        0        0       20        0        9       12       33      279      278       85       64      123      122
      351      431      920      354      516      517      652      571      352      429      655      653
        1        1        1        1        0        0        0        0       20        0       10       17       37       26       43       80       60       71       54
      373      405      406      374      501      500      483      485      375      441      407      457
! ... 177 like lines cut
!Material Id = {DF16C79F-831E-4988-B6E1-429F595E9508}
/wb,elem,end               !  done creating elements
/com,*********** Send User Defined Coordinate System(s) ***********
csys,0
toffst,273.15,  ! Temperature offset from absolute zero
/com,*********** Set Reference Temperature ***********
tref,-271.1
/wb,mat,start              !  starting to send materials
/com,*********** Send Materials ***********
Temperature = 'TEMP' ! Temperature
MP,DENS,1,2.77e-09,	! tonne mm^-3
MP,ALPX,1,2.3e-05,	! C^-1
MP,C,1,875000000,	! mm^2 s^-2 C^-1
MPTEMP,,,,,,,,
MPTEMP,1,-100
MPTEMP,2,0
MPTEMP,3,100
MPTEMP,4,200
MPDATA,KXX,1, ,114,144,165,175,	! tonne mm s^-3 C^-1
MPTEMP,,,,,,,,
MPTEMP,,,,,,,,
MPTEMP,1,0
MPTEMP,2,20
MPTEMP,3,100
MPDATA,RSVX,1, ,2.43e-05,2.67e-05,3.63e-05,	! ohm mm
MPTEMP,,,,,,,,
MP,EX,1,69800,	! tonne s^-2 mm^-1
MP,NUXY,1,0.33,
MP,MURX,1,1,

/wb,mat,end                !  done sending materials
!************************* Model Summary ********************
!blocking part,	Aluminum Alloy,	matid,	1
!************************* End Model Summary ********************
! get the diagonal of the bounding box. Needed later for other things
*get,_xmin,node,,mnloc,x
*get,_ymin,node,,mnloc,y
*get,_zmin,node,,mnloc,z
*get,_xmax,node,,mxloc,x
*get,_ymax,node,,mxloc,y
*get,_zmax,node,,mxloc,z
_ASMDIAG=(_xmax-_xmin)*(_xmax-_xmin)+(_ymax-_ymin)*(_ymax-_ymin)+(_zmax-_zmin)*(_zmax-_zmin)
_ASMDIAG=SQRT(_ASMDIAG)
/wb,contact,start          !  starting to send contact
/wb,contact,end            !  done creating contacts
/golist
/wb,load,start             !  starting to send loads
/com,*********** Fixed Supports ***********
CMBLOCK,_FIXEDSU,NODE,       12
(8i10)
       111       140       141       156       251       252       267       282
       625       695       697       732
cmsel,s,_FIXEDSU
d,all,all
nsel,all
/com,*********** Define Force Using Surface Effect Elements ***********
local,12,0,0.,0.,0.,0.,0.,0.
csys,0
et,2,154
eblock,10,,,98
(15i9)
      395        2        2        2       12       61       89       62       49      505      509      468      467
      396        2        2        2       12       61       49      171      172      467      469      762      507
      397        2        2        2       12       49       62      170      171      468      510      760      469
      398        2        2        2       12       57       95       58       50      491      495      471      470
      399        2        2        2       12       57       50      191      192      470      472      802      493
      400        2        2        2       12       50       58      190      191      471      496      800      472
      401        2        2        2       12       70       51       77       64      474      475      515      514
      402        2        2        2       12       64       77      124      123      515      553      654      517
      403        2        2        2       12       85       64      123      122      516      517      652      571
      404        2        2        2       12       71       54       80       60      483      485      501      500
      405        2        2        2       12       60       80      138      137      501      562      689      503
      406        2        2        2       12       91       60      137      136      502      503      687      580
      407        2        2        2       12       52       51       70       86      473      474      534      479
      408        2        2        2       12       86       63       53       52      511      480      477      479
      409        2        2        2       12       55       54       71       92      482      483      536      488
      410        2        2        2       12       92       59       56       55      497      489      486      488
      411        2        2        2       12       51       84       78       77      476      554      552      475
      412        2        2        2       12       52       66       84       51      478      522      476      473
      413        2        2        2       12       53       87       66       52      481      523      478      477
      414        2        2        2       12       63       88       87       53      512      574      481      480
! ... 79 like lines cut
esel,s,type,,2
keyop,2,2,1                ! Apply load in local coordinate system
keyop,2,7,1                ! Use original area so load is constant in large deformation
keyop,2,11,2               ! Use real and not project area
esel,all
/gst,on,on
fini
*get,_numnode,node,0,count
*get,_numelem,elem,0,count
*get, _MAXELEMNUM, elem, 0, NUM, MAX
*get, _MAXNODENUM, node, 0, NUM, MAX
*get, _MAXELEMTYPE, etyp, 0, NUM, MAX
*get, _MAXREALCONST, real, 0, NUM, MAX
/go
/wb,load,end               !  done creating loads
/com,--- Number of total nodes = %_numnode%
/com,--- Number of contact elements = 98
/com,--- Number of spring elements = 0
/com,--- Number of bearing elements = 0
/com,--- Number of solid elements = 98
/com,--- Number of condensed parts = 0
/com,--- Number of total elements = %_numelem%
*get,_wallbsol,active,,time,wall
/com,****************************************************************************
/com,*************************    SOLUTION       ********************************
/com,****************************************************************************
/solu
antype,0                   ! static analysis
_thickRatio=  0     ! Ratio of thick parts in the model
eqsl,sparse,,,,,1
cntr,print,1               ! print out contact info and also make no initial contact an error
dmpoption,emat,no             ! Don't combine emat file for DANSYS
dmpoption,esav,no             ! Don't combine esav file for DANSYS
nldiag,cont,iter           ! print out contact info each equilibrium iteration
rescontrol,,none                 ! Do not keep any restart files
/com,****************************************************
/com,******************* SOLVE FOR LS 1 OF 1 ****************
esel,s,type,,2
nsle
sfe,all,1,pres,1,0.
sfe,all,2,pres,1,0.
sfe,all,3,pres,1,-0.165114719155177
nsel,all
esel,all
/nopr
/gopr
nsub,1,1,1
time,1.
outres,erase
outres,all,none
outres,nsol,all,
outres,rsol,all
outres,eangl,all
outres,etmp,all
outres,veng,all
outres,strs,all,
outres,epel,all,
outres,eppl,all,
outres,cont,all,
! *********** WB SOLVE COMMAND ***********
! check interactive state
*get,ANSINTER_,active,,int
*if,ANSINTER_,ne,0,then
/eof
*endif
solve
/com *************** Write FE CONNECTORS ********* 
CEWRITE,file,ce,,INTE
/com,****************************************************
/com,*************** FINISHED SOLVE FOR LS 1 *************
*get,_wallasol,active,,time,wall
/nopr
*get,_numnode,node,0,count
*get,_numelem,elem,0,count
*get, _MAXELEMNUM, elem, 0, NUM, MAX
*get, _MAXNODENUM, node, 0, NUM, MAX,,,INTERNAL
*get, _MAXELEMTYPE, etyp, 0, NUM, MAX
*get, _MAXREALCONST, real, 0, NUM, MAX
/gopr
/post1
xmlo,ENCODING,ISO-8859-1
xmlo,parm
/xml,parm,xml
fini
/gopr
*get,_walldone,active,,time,wall
_preptime=(_wallbsol-_wallstrt)*3600
_solvtime=(_wallasol-_wallbsol)*3600
_posttime=(_walldone-_wallasol)*3600
_totaltim=(_walldone-_wallstrt)*3600
*get,_dlbratio,active,0,solu,dlbr
*get,_combtime,active,0,solu,comb
/com,--- Number of total nodes = %_numnode%
/com,--- Number of total elements = %_numelem%
/com,--- Element load balance ratio = %_dlbratio%
/com,--- Time to combine distributed files = %_combtime%
/wb,file,end               ! done with WB generated input
