/batch
/config,noeldb,1     ! force off writing results to database
*get,_wallstrt,active,,time,wall
! ANSYS input file written by Workbench version 2019 R3
! File used for geometry attach: C:\Users\Rajatsurya\OneDrive\Documents\antenna booming mechanism fea analysis\antenna hub fea analysis_files\dp0\SYS\DM\SYS.agdb
/title,antenna hub fea analysis--Static Structural (A5)
*DIM,_wb_ProjectScratch_dir,string,248
_wb_ProjectScratch_dir(1) = 'C:\Users\Rajatsurya\OneDrive\Documents\antenna booming mechanism fea analysis\_ProjectScratch\Scr478C\'
*DIM,_wb_SolverFiles_dir,string,248
_wb_SolverFiles_dir(1) = 'C:\Users\Rajatsurya\OneDrive\Documents\antenna booming mechanism fea analysis\antenna hub fea analysis_files\dp0\SYS\MECH\'
*DIM,_wb_userfiles_dir,string,248
_wb_userfiles_dir(1) = 'C:\Users\Rajatsurya\OneDrive\Documents\antenna booming mechanism fea analysis\antenna hub fea analysis_files\user_files\'
/com,--- Data in consistent NMM units. See Solving Units in the help system for more information.
/units,MPA
/nopr
/wb,file,start              !  signify a WB generated input file
/prep7
! Turn off shape checking because checks already performed inside WB mesher.
! See help system for more information.
SHPP,OFF,,NOWARN
/nolist
etcon,set             ! allow ANSYS to choose best KEYOP's for 180x elements
/com,*********** Nodes for the whole assembly ***********
nblock,3,,8874
(1i9,3e20.9e3)
        1    -4.400000000E+01    -4.000000000E+01    -2.100000000E+01
        2    -3.600000000E+01    -4.000000000E+01    -2.100000000E+01
        3    -4.366789148E+01    -4.159581044E+01    -2.100000000E+01
        4    -4.278681608E+01    -4.286943972E+01    -2.100000000E+01
        5    -4.146751088E+01    -4.372107405E+01    -2.100000000E+01
        6    -3.985925425E+01    -4.399748443E+01    -2.100000000E+01
        7    -3.829680332E+01    -4.361921605E+01    -2.100000000E+01
        8    -3.706865889E+01    -4.272164046E+01    -2.100000000E+01
        9    -3.625761540E+01    -4.141232768E+01    -2.100000000E+01
       10    -3.600000000E+01    -4.000000000E+01    -3.600000000E+01
       11    -3.600000000E+01    -4.000000000E+01    -2.250154026E+01
       12    -3.600000000E+01    -4.000000000E+01    -2.400311725E+01
       13    -3.600000000E+01    -4.000000000E+01    -2.550469425E+01
       14    -3.600000000E+01    -4.000000000E+01    -2.700627124E+01
       15    -3.600000000E+01    -4.000000000E+01    -2.850778417E+01
       16    -3.600000000E+01    -4.000000000E+01    -3.000872521E+01
       17    -3.600000000E+01    -4.000000000E+01    -3.150931393E+01
       18    -3.600000000E+01    -4.000000000E+01    -3.301087331E+01
       19    -3.600000000E+01    -4.000000000E+01    -3.451235354E+01
       20    -4.400000000E+01    -4.000000000E+01    -3.600000000E+01
! ... 8049 like lines cut
/wb,elem,start            !  set before creation of elements
/com,*********** Elements for Body 1 "antenna hub" ***********
et,1,181
keyo,1,3,2
eblock,19,solid,,8142
(19i9)
        1        1        1        1        0        0        0        0        4        0      289      254      253      530      530
        1        1        1        1        0        0        0        0        4        0      290      256      255      531      531
        1        1        1        1        0        0        0        0        4        0      291      269      251      528      528
        1        1        1        1        0        0        0        0        4        0      292      528      251      259      259
        1        1        1        1        0        0        0        0        4        0      293      274      273      537      537
        1        1        1        1        0        0        0        0        4        0      294      274      537      275      275
        1        1        1        1        0        0        0        0        4        0      307     7053     7052     7050     7050
        1        1        1        1        0        0        0        0        4        0      392     6852     6908     6851     6851
        1        1        1        1        0        0        0        0        4        0      669      311      310      549      549
        1        1        1        1        0        0        0        0        4        0      670      308      307      547      547
        1        1        1        1        0        0        0        0        4        0      671      305      287      540      540
        1        1        1        1        0        0        0        0        4        0      672      294      293      544      544
        1        1        1        1        0        0        0        0        4        0      673      291      290      542      542
        1        1        1        1        0        0        0        0        4        0      674      289      288      541      541
        1        1        1        1        0        0        0        0        4        0      783     8054     8001     8057     8057
        1        1        1        1        0        0        0        0        4        0      869     6992     7038     6991     6991
        1        1        1        1        0        0        0        0        4        0      953     6918     6978     6974     6974
        1        1        1        1        0        0        0        0        4        0     1038     6726     6772     6724     6724
        1        1        1        1        0        0        0        0        4        0     1122     7571     7476     7850     7850
        1        1        1        1        0        0        0        0        4        0     1123     7423     7852     7357     7357
! ... 8123 like lines cut
!Material Id = {4D06C7ED-642D-446B-8CCE-671DB77B5A8C}
/wb,elem,end               !  done creating elements
/com,*********** Send User Defined Coordinate System(s) ***********
csys,0
toffst,273.15,  ! Temperature offset from absolute zero
/com,*********** Set Reference Temperature ***********
tref,-271.1
/wb,mat,start              !  starting to send materials
/com,*********** Send Materials ***********
Temperature = 'TEMP' ! Temperature
MP,DENS,1,2.77e-09,	! tonne mm^-3
MP,ALPX,1,2.3e-05,	! C^-1
MP,C,1,875000000,	! mm^2 s^-2 C^-1
MPTEMP,,,,,,,,
MPTEMP,1,-100
MPTEMP,2,0
MPTEMP,3,100
MPTEMP,4,200
MPDATA,KXX,1, ,114,144,165,175,	! tonne mm s^-3 C^-1
MPTEMP,,,,,,,,
MPTEMP,,,,,,,,
MPTEMP,1,0
MPTEMP,2,20
MPTEMP,3,100
MPDATA,RSVX,1, ,2.43e-05,2.67e-05,3.63e-05,	! ohm mm
MPTEMP,,,,,,,,
MP,EX,1,68900,	! tonne s^-2 mm^-1
MP,NUXY,1,0.33,
MP,MURX,1,1,

/wb,mat,end                !  done sending materials
/com,*********** Send Sheet Properties ***********
sectype,1,shell
secdata,1.
secoff,mid

!************************* Model Summary ********************
!antenna hub,	Aluminum Alloy,	matid,	1
!************************* End Model Summary ********************
! get the diagonal of the bounding box. Needed later for other things
*get,_xmin,node,,mnloc,x
*get,_ymin,node,,mnloc,y
*get,_zmin,node,,mnloc,z
*get,_xmax,node,,mxloc,x
*get,_ymax,node,,mxloc,y
*get,_zmax,node,,mxloc,z
_ASMDIAG=(_xmax-_xmin)*(_xmax-_xmin)+(_ymax-_ymin)*(_ymax-_ymin)+(_zmax-_zmin)*(_zmax-_zmin)
_ASMDIAG=SQRT(_ASMDIAG)
/wb,contact,start          !  starting to send contact
/wb,contact,end            !  done creating contacts
/golist
/wb,load,start             !  starting to send loads
/com,*********** Fixed Supports ***********
CMBLOCK,_FIXEDSU,NODE,      743
(8i10)
         1         2         3         4         5         6         7         8
         9        10        11        12        13        14        15        16
        17        18        19        20        21        22        23        24
        25        26        27        28        29        30        31        32
        33        34        35        36        37        38        39        40
        41        42        43        44        45        46        47        48
        49        50        51        52        53        54        55        56
        57        58        59        60        61        62        63        64
        65        66        67        68        69        70        71        72
        73        74        75        76        77        78        79        80
        81        82        83        84        85        86        87        88
        89        90        91        92        93        94        95        96
        97        98        99       100       241       242       243       244
       245       246       247       248       249       250       251       252
       253       254       255       256       257       258       259       260
       261       262       263       264       265       266       267       268
       269       270       271       272       273       274       275       276
       277       278       279       280       281       282       283       284
       285       286       287       288       289       290       291       292
       293       294       295       296       297       298       299       300
! ... 73 like lines cut
cmsel,s,_FIXEDSU
d,all,all
nsel,all
/com,*********** Define Force Using Surface Effect Elements ***********
local,12,0,0.,0.,0.,0.,0.,0.
csys,0
et,2,154
eblock,10,,,699
(15i9)
     8143        2        2        2       12     6201     6126     6125     6125
     8144        2        2        2       12     6260     6264     6263     6263
     8145        2        2        2       12     5828     5844     5797     5797
     8146        2        2        2       12     5865     6059     6060     6060
     8147        2        2        2       12     5905     6095     6094     6094
     8148        2        2        2       12     5805     5851     5804     5804
     8149        2        2        2       12     6065     5778     5777     5777
     8150        2        2        2       12     5799     5785     6305     6305
     8151        2        2        2       12     6071     5789     6070     6070
     8152        2        2        2       12     5810     6101     6100     6100
     8153        2        2        2       12     5798     6071     6072     6073
     8154        2        2        2       12     6071     5798     6305     5789
     8155        2        2        2       12     6123     6122     6121     5748
     8156        2        2        2       12     5748     5964     6300     6123
     8157        2        2        2       12     5876     5877     5964     5748
     8158        2        2        2       12     5875     5876     5748     6121
     8159        2        2        2       12      595     6117     6122      594
     8160        2        2        2       12     6117     5834     6121     6122
     8161        2        2        2       12     5751     6271     5838     5749
     8162        2        2        2       12     6113     5751     5749     6112
! ... 680 like lines cut
esel,s,type,,2
keyop,2,2,1                ! Apply load in local coordinate system
keyop,2,7,1                ! Use original area so load is constant in large deformation
keyop,2,11,2               ! Use real and not project area
esel,all
/gst,on,on
fini
*get,_numnode,node,0,count
*get,_numelem,elem,0,count
*get, _MAXELEMNUM, elem, 0, NUM, MAX
*get, _MAXNODENUM, node, 0, NUM, MAX
*get, _MAXELEMTYPE, etyp, 0, NUM, MAX
*get, _MAXREALCONST, real, 0, NUM, MAX
/go
/wb,load,end               !  done creating loads
/com,--- Number of total nodes = %_numnode%
/com,--- Number of contact elements = 699
/com,--- Number of spring elements = 0
/com,--- Number of bearing elements = 0
/com,--- Number of solid elements = 8142
/com,--- Number of condensed parts = 0
/com,--- Number of total elements = %_numelem%
*get,_wallbsol,active,,time,wall
/com,****************************************************************************
/com,*************************    SOLUTION       ********************************
/com,****************************************************************************
/solu
antype,0                   ! static analysis
_thickRatio=  0     ! Ratio of thick parts in the model
eqsl,sparse,,,,,1
cntr,print,1               ! print out contact info and also make no initial contact an error
dmpoption,emat,no             ! Don't combine emat file for DANSYS
dmpoption,esav,no             ! Don't combine esav file for DANSYS
nldiag,cont,iter           ! print out contact info each equilibrium iteration
rescontrol,,none                 ! Do not keep any restart files
/com,****************************************************
/com,******************* SOLVE FOR LS 1 OF 1 ****************
esel,s,type,,2
nsle
sfe,all,1,pres,1,0.
sfe,all,2,pres,1,0.
sfe,all,3,pres,1,-0.121995791040188
nsel,all
esel,all
/nopr
/gopr
nsub,1,1,1
time,1.
outres,erase
outres,all,none
outres,nsol,all,
outres,rsol,all
outres,eangl,all
outres,etmp,all
outres,veng,all
outres,strs,all,
outres,epel,all,
outres,eppl,all,
outres,cont,all,
! *********** WB SOLVE COMMAND ***********
! check interactive state
*get,ANSINTER_,active,,int
*if,ANSINTER_,ne,0,then
/eof
*endif
solve
/com *************** Write FE CONNECTORS ********* 
CEWRITE,file,ce,,INTE
/com,****************************************************
/com,*************** FINISHED SOLVE FOR LS 1 *************
*get,_wallasol,active,,time,wall
/nopr
*get,_numnode,node,0,count
*get,_numelem,elem,0,count
*get, _MAXELEMNUM, elem, 0, NUM, MAX
*get, _MAXNODENUM, node, 0, NUM, MAX,,,INTERNAL
*get, _MAXELEMTYPE, etyp, 0, NUM, MAX
*get, _MAXREALCONST, real, 0, NUM, MAX
/gopr
/post1
xmlo,ENCODING,ISO-8859-1
xmlo,parm
/xml,parm,xml
fini
/gopr
*get,_walldone,active,,time,wall
_preptime=(_wallbsol-_wallstrt)*3600
_solvtime=(_wallasol-_wallbsol)*3600
_posttime=(_walldone-_wallasol)*3600
_totaltim=(_walldone-_wallstrt)*3600
*get,_dlbratio,active,0,solu,dlbr
*get,_combtime,active,0,solu,comb
/com,--- Number of total nodes = %_numnode%
/com,--- Number of total elements = %_numelem%
/com,--- Element load balance ratio = %_dlbratio%
/com,--- Time to combine distributed files = %_combtime%
/wb,file,end               ! done with WB generated input
