/batch
/config,noeldb,1     ! force off writing results to database
*get,_wallstrt,active,,time,wall
! ANSYS input file written by Workbench version 2019 R3
! File used for geometry attach: C:\Users\Rajatsurya\OneDrive\Documents\antenna booming mechanism fea analysis\assembled male lock for fea anlysis.igs
/title,male lock fea analysis--Static Structural (A5)
*DIM,_wb_ProjectScratch_dir,string,248
_wb_ProjectScratch_dir(1) = 'C:\Users\Rajatsurya\OneDrive\Documents\antenna booming mechanism fea analysis\_ProjectScratch\ScrF013\'
*DIM,_wb_SolverFiles_dir,string,248
_wb_SolverFiles_dir(1) = 'C:\Users\Rajatsurya\OneDrive\Documents\antenna booming mechanism fea analysis\male lock fea analysis_files\dp0\SYS\MECH\'
*DIM,_wb_userfiles_dir,string,248
_wb_userfiles_dir(1) = 'C:\Users\Rajatsurya\OneDrive\Documents\antenna booming mechanism fea analysis\male lock fea analysis_files\user_files\'
/com,--- Data in consistent NMM units. See Solving Units in the help system for more information.
/units,MPA
/nopr
/wb,file,start              !  signify a WB generated input file
/prep7
! Turn off shape checking because checks already performed inside WB mesher.
! See help system for more information.
SHPP,OFF,,NOWARN
/nolist
etcon,set             ! allow ANSYS to choose best KEYOP's for 180x elements
/com,*********** Nodes for the whole assembly ***********
nblock,3,,2179
(1i9,3e20.9e3)
        1     7.500148099E-01     3.620519419E-05     9.207014790E+00
        2    -7.499851901E-01     3.620519419E-05     9.207014790E+00
        3     3.750148099E-01    -6.494828476E-01     9.207014790E+00
        4    -3.749851901E-01    -6.494828476E-01     9.207014790E+00
        5    -3.749851901E-01     6.495552580E-01     9.207014790E+00
        6     3.750148099E-01     6.495552580E-01     9.207014790E+00
        7    -2.999985190E+00     2.500362052E-01     6.967014790E+00
        8    -3.625923472E+00     2.500362052E-01     7.625897192E+00
        9    -2.999985190E+00    -2.499637948E-01     6.967014790E+00
       10    -3.625923472E+00    -2.499637948E-01     7.625897192E+00
       11    -2.499985190E+00     2.500362052E-01     8.217014790E+00
       12    -3.062954331E+00     2.500362052E-01     7.921455991E+00
       13    -2.499985190E+00    -2.499637948E-01     8.217014790E+00
       14    -3.062954331E+00    -2.499637948E-01     7.921455991E+00
       15     2.500014810E+00     2.500362052E-01     8.217014790E+00
       16     3.633846057E+00     2.500362052E-01     7.553308694E+00
       17     3.066930433E+00     2.500362052E-01     7.885161742E+00
       18     2.500014810E+00    -2.499637948E-01     8.217014790E+00
       19     3.633846057E+00    -2.499637948E-01     7.553308694E+00
       20     3.066930433E+00    -2.499637948E-01     7.885161742E+00
! ... 1962 like lines cut
/wb,elem,start            !  set before creation of elements
/com,*********** Elements for Body 1 "locking mechanism|PartBody" ***********
et,1,187
eblock,19,solid,,970
(19i9)
        1        1        1        1        0        0        0        0       10        0        1      128      148      351      144     1109     1227     1110     1108
     1208     1211
        1        1        1        1        0        0        0        0       10        0        2      119      128      351      144     1046     1110     1049     1047
     1108     1211
        1        1        1        1        0        0        0        0       10        0        3      147      155      148      351     1221     1225     1219     1222
     1245     1227
        1        1        1        1        0        0        0        0       10        0        4      125      148      155      351     1088     1225     1091     1092
     1227     1245
        1        1        1        1        0        0        0        0       10        0        5      125      148      351      128     1088     1227     1092     1087
     1109     1110
        1        1        1        1        0        0        0        0       10        0        6      119      125      351      128     1045     1092     1049     1046
     1087     1110
        1        1        1        1        0        0        0        0       10        0        7      124      351      155      147     1085     1245     1084     1082
     1222     1221
        1        1        1        1        0        0        0        0       10        0        8      124      155      351      125     1084     1245     1085     1080
     1091     1092
        1        1        1        1        0        0        0        0       10        0        9      144      151      351      321     1209     1233     1211     1210
     1232     1958
        1        1        1        1        0        0        0        0       10        0       10      119      144      351      321     1047     1211     1049     1048
     1210     1958
! ... 1921 like lines cut
!Material Id = {58772E68-E3BE-4C0D-85C7-1E4B135B5955}
/wb,elem,end               !  done creating elements
/com,*********** Send User Defined Coordinate System(s) ***********
csys,0
toffst,273.15,  ! Temperature offset from absolute zero
/com,*********** Set Reference Temperature ***********
tref,-271.1
/wb,mat,start              !  starting to send materials
/com,*********** Send Materials ***********
MP,DENS,1,2.68e-09,	! tonne mm^-3
MP,EX,1,73000,	! tonne s^-2 mm^-1
MP,NUXY,1,0.33,
MP,KXX,1,152,	! tonne mm s^-3 C^-1
MP,ALPX,1,2.15e-05,	! C^-1
MP,C,1,963000000,	! mm^2 s^-2 C^-1
MP,RSVX,1,4.4e-05,	! ohm mm

/wb,mat,end                !  done sending materials
!************************* Model Summary ********************
!locking mechanism|PartBody,	Aluminum alloy, cast,	matid,	1
!************************* End Model Summary ********************
! get the diagonal of the bounding box. Needed later for other things
*get,_xmin,node,,mnloc,x
*get,_ymin,node,,mnloc,y
*get,_zmin,node,,mnloc,z
*get,_xmax,node,,mxloc,x
*get,_ymax,node,,mxloc,y
*get,_zmax,node,,mxloc,z
_ASMDIAG=(_xmax-_xmin)*(_xmax-_xmin)+(_ymax-_ymin)*(_ymax-_ymin)+(_zmax-_zmin)*(_zmax-_zmin)
_ASMDIAG=SQRT(_ASMDIAG)
/wb,contact,start          !  starting to send contact
/wb,contact,end            !  done creating contacts
/golist
/wb,load,start             !  starting to send loads
/com,*********** Fixed Supports ***********
CMBLOCK,_FIXEDSU,NODE,      257
(8i10)
       115       117       118       124       126       127       134       136
       137       138       141       147       149       150       151       152
       155       161       163       164       165       181       183       184
       185       186       187       188       189       190       191       192
       193       194       195       196       201       203       204       205
       208       212       213       214       215       216       217       218
       219       220       221       222       223       224       225       226
       227       246       248       252       253       254       279       280
       281       282       283       284       285       286       287       288
       289       290       291       292       293       294       295      1014
      1015      1016      1017      1018      1028      1030      1032      1033
      1034      1035      1039      1040      1041      1042      1081      1082
      1083      1084      1093      1094      1095      1096      1097      1101
      1103      1104      1105      1149      1150      1152      1153      1154
      1162      1164      1165      1166      1167      1168      1170      1172
      1173      1174      1176      1177      1178      1194      1195      1220
      1221      1228      1230      1235      1236      1263      1264      1270
      1272      1361      1362      1363      1369      1370      1372      1373
      1375      1376      1377      1379      1380      1383      1384      1385
      1387      1388      1389      1392      1393      1396      1397      1398
! ... 13 like lines cut
cmsel,s,_FIXEDSU
d,all,all
nsel,all
/com,*********** Define Force Using Surface Effect Elements ***********
local,12,0,0.,0.,0.,0.,0.,0.
csys,0
et,2,154
eblock,10,,,150
(15i9)
     1583        2        2        2       12      112      146      114      114      998     1009      114      993
     1584        2        2        2       12      112      145      146      146      997     1212      146      998
     1585        2        2        2       12       72       73      233      233      738      748      233      742
     1586        2        2        2       12      211      250      210      210     1488     1483      210     1478
     1587        2        2        2       12      261      272      267      267     1690     1722      267     1688
     1588        2        2        2       12      123      180      157      157     1076     1248      157     1075
     1589        2        2        2       12      114      146      140      140     1009     1189      140     1008
     1590        2        2        2       12      211      251      250      250     1489     1658      250     1488
     1591        2        2        2       12      211      228      251      251     1487     1591      251     1489
     1592        2        2        2       12      112      144      145      145      996     1207      145      997
     1593        2        2        2       12       71       93       76       76      732      761       76      731
     1594        2        2        2       12      130      245      197      197     1123     1428      197     1119
     1595        2        2        2       12       76       93       85       85      761      804       85      760
     1596        2        2        2       12       75       76       85       85      753      760       85      754
     1597        2        2        2       12      128      143      144      144     1107     1204      144     1108
     1598        2        2        2       12      112      128      144      144      995     1108      144      996
     1599        2        2        2       12      210      250      249      249     1483     1655      249     1482
     1600        2        2        2       12      210      249      244      244     1482     1647      244     1480
     1601        2        2        2       12       53       58       77       77      598      638       77      600
     1602        2        2        2       12       65       66       85       85      685      694       85      687
! ... 131 like lines cut
esel,s,type,,2
keyop,2,2,1                ! Apply load in local coordinate system
keyop,2,7,1                ! Use original area so load is constant in large deformation
keyop,2,11,2               ! Use real and not project area
esel,all
/com,*********** Define Force Using Surface Effect Elements ***********
local,13,0,0.,0.,0.,0.,0.,0.
csys,0
et,3,154
eblock,10,,,32
(15i9)
     1733        3        3        3       13        3        6        4        4      369      377        4      368
     1734        3        3        3       13        4        6        5        5      377      382        5      376
     1735        3        3        3       13        2        4        5        5      360      376        5      361
     1736        3        3        3       13        1        6        3        3      354      369        3      353
     1737        3        3        3       13       31      296       32       32      508      513       32      505
     1738        3        3        3       13        1      296       38       38      357      538       38      356
     1739        3        3        3       13        5       36       35       35      384      525       35      383
     1740        3        3        3       13        3       44       43       43      371      557       43      370
     1741        3        3        3       13       31       38      296      296      506      538      296      508
     1742        3        3        3       13       40       46      297      297      545      572      297      547
     1743        3        3        3       13        1        3      296      296      353      372      296      357
     1744        3        3        3       13        5        6       36       36      382      388       36      384
     1745        3        3        3       13        3        4       44       44      368      378       44      371
     1746        3        3        3       13       42      296       43       43      554      558       43      552
     1747        3        3        3       13        4       45       44       44      379      563       44      378
     1748        3        3        3       13       33       41       34       34      516      519       34      515
     1749        3        3        3       13        2       35       34       34      363      518       34      362
     1750        3        3        3       13       45      297       46       46      568      572       46      567
     1751        3        3        3       13        1       38       37       37      356      532       37      355
     1752        3        3        3       13        1       37        6        6      355      389        6      354
! ... 13 like lines cut
esel,s,type,,3
keyop,3,2,1                ! Apply load in local coordinate system
keyop,3,7,1                ! Use original area so load is constant in large deformation
keyop,3,11,2               ! Use real and not project area
esel,all
/com,*********** Define Force Using Surface Effect Elements ***********
local,14,0,0.,0.,0.,0.,0.,0.
csys,0
et,4,154
eblock,10,,,4
(15i9)
     1765        4        4        4       14       50       51       48       48      587      580       48      579
     1766        4        4        4       14       49       51       50       50      584      587       50      583
     1767        4        4        4       14       47       51       49       49      576      584       49      575
     1768        4        4        4       14       52       51       47       47      591      576       47      577
-1
esel,s,type,,4
keyop,4,2,1                ! Apply load in local coordinate system
keyop,4,7,1                ! Use original area so load is constant in large deformation
keyop,4,11,2               ! Use real and not project area
esel,all
/com,*********** Define Force Using Surface Effect Elements ***********
local,15,0,0.,0.,0.,0.,0.,0.
csys,0
et,5,154
eblock,10,,,4
(15i9)
     1769        5        5        5       15       25       27       24       24      486      483       24      481
     1770        5        5        5       15       28       27       25       25      493      486       25      487
     1771        5        5        5       15       23       28       25       25      479      487       25      478
     1772        5        5        5       15       25       24       26       26      481      482       26      485
-1
esel,s,type,,5
keyop,5,2,1                ! Apply load in local coordinate system
keyop,5,7,1                ! Use original area so load is constant in large deformation
keyop,5,11,2               ! Use real and not project area
esel,all
/gst,on,on
fini
*get,_numnode,node,0,count
*get,_numelem,elem,0,count
*get, _MAXELEMNUM, elem, 0, NUM, MAX
*get, _MAXNODENUM, node, 0, NUM, MAX
*get, _MAXELEMTYPE, etyp, 0, NUM, MAX
*get, _MAXREALCONST, real, 0, NUM, MAX
/go
/wb,load,end               !  done creating loads
/com,--- Number of total nodes = %_numnode%
/com,--- Number of contact elements = 190
/com,--- Number of spring elements = 0
/com,--- Number of bearing elements = 0
/com,--- Number of solid elements = 970
/com,--- Number of condensed parts = 0
/com,--- Number of total elements = %_numelem%
*get,_wallbsol,active,,time,wall
/com,****************************************************************************
/com,*************************    SOLUTION       ********************************
/com,****************************************************************************
/solu
antype,0                   ! static analysis
_thickRatio=  0     ! Ratio of thick parts in the model
eqsl,sparse,,,,,1
cntr,print,1               ! print out contact info and also make no initial contact an error
dmpoption,emat,no             ! Don't combine emat file for DANSYS
dmpoption,esav,no             ! Don't combine esav file for DANSYS
nldiag,cont,iter           ! print out contact info each equilibrium iteration
rescontrol,,none                 ! Do not keep any restart files
/com,****************************************************
/com,******************* SOLVE FOR LS 1 OF 1 ****************
esel,s,type,,2
nsle
sfe,all,1,pres,1,0.
sfe,all,2,pres,1,0.
sfe,all,3,pres,1,-1.2018806395662
esel,s,type,,3
nsle
sfe,all,1,pres,1,0.
sfe,all,2,pres,1,0.
sfe,all,3,pres,1,-8.09934022168354
esel,s,type,,4
nsle
sfe,all,1,pres,1,0.
sfe,all,2,pres,1,0.
sfe,all,3,pres,1,-415.902985572323
esel,s,type,,5
nsle
sfe,all,1,pres,1,0.
sfe,all,2,pres,1,0.
sfe,all,3,pres,1,-414.892817363521
nsel,all
esel,all
/nopr
/gopr
nsub,1,1,1
time,1.
outres,erase
outres,all,none
outres,nsol,all,
outres,rsol,all
outres,eangl,all
outres,etmp,all
outres,veng,all
outres,strs,all,
outres,epel,all,
outres,eppl,all,
outres,cont,all,
! *********** WB SOLVE COMMAND ***********
! check interactive state
*get,ANSINTER_,active,,int
*if,ANSINTER_,ne,0,then
/eof
*endif
solve
/com *************** Write FE CONNECTORS ********* 
CEWRITE,file,ce,,INTE
/com,****************************************************
/com,*************** FINISHED SOLVE FOR LS 1 *************
*get,_wallasol,active,,time,wall
/nopr
*get,_numnode,node,0,count
*get,_numelem,elem,0,count
*get, _MAXELEMNUM, elem, 0, NUM, MAX
*get, _MAXNODENUM, node, 0, NUM, MAX,,,INTERNAL
*get, _MAXELEMTYPE, etyp, 0, NUM, MAX
*get, _MAXREALCONST, real, 0, NUM, MAX
/gopr
/post1
xmlo,ENCODING,ISO-8859-1
xmlo,parm
/xml,parm,xml
fini
/gopr
*get,_walldone,active,,time,wall
_preptime=(_wallbsol-_wallstrt)*3600
_solvtime=(_wallasol-_wallbsol)*3600
_posttime=(_walldone-_wallasol)*3600
_totaltim=(_walldone-_wallstrt)*3600
*get,_dlbratio,active,0,solu,dlbr
*get,_combtime,active,0,solu,comb
/com,--- Number of total nodes = %_numnode%
/com,--- Number of total elements = %_numelem%
/com,--- Element load balance ratio = %_dlbratio%
/com,--- Time to combine distributed files = %_combtime%
/wb,file,end               ! done with WB generated input
