/batch
/config,noeldb,1     ! force off writing results to database
*get,_wallstrt,active,,time,wall
! ANSYS input file written by Workbench version 2019 R3
! File used for geometry attach: C:\Users\Rajatsurya\OneDrive\Documents\antenna booming mechanism fea analysis\frictional and pressure analysis on column blocking part and hub_files\dp0\SYS\DM\SYS.agdb
/title,frictional and pressure analysis on column blocking part and hub--Static Structural (A5)
*DIM,_wb_ProjectScratch_dir,string,248
_wb_ProjectScratch_dir(1) = 'C:\Users\Rajatsurya\OneDrive\Documents\antenna booming mechanism fea analysis\_ProjectScratch\Scr6E8F\'
*DIM,_wb_SolverFiles_dir,string,248
_wb_SolverFiles_dir(1) = 'C:\Users\Rajatsurya\OneDrive\Documents\antenna booming mechanism fea analysis\frictional and pressure analysis on column blocking part and hub_files\dp0\SYS\MECH\'
*DIM,_wb_userfiles_dir,string,248
_wb_userfiles_dir(1) = 'C:\Users\Rajatsurya\OneDrive\Documents\antenna booming mechanism fea analysis\frictional and pressure analysis on column blocking part and hub_files\user_files\'
/com,--- Data in consistent NMM units. See Solving Units in the help system for more information.
/units,MPA
/nopr
/wb,file,start              !  signify a WB generated input file
/prep7
! Turn off shape checking because checks already performed inside WB mesher.
! See help system for more information.
SHPP,OFF,,NOWARN
/nolist
etcon,set             ! allow ANSYS to choose best KEYOP's for 180x elements
/com,*********** Nodes for the whole assembly ***********
nblock,3,,10597
(1i9,3e20.9e3)
        1     3.859327232E+01     3.801248362E+01     1.960235493E+02
        2     3.019357923E+01     3.802264645E+01     1.960235493E+02
        3    -4.159681389E+01     2.773488667E+01     1.960235493E+02
        4    -3.019308474E+01    -3.823598255E+01     1.960235493E+02
        5     4.159637924E+01    -2.773524302E+01     1.960235493E+02
        6    -4.308885802E+01     1.742495833E+01     1.960235493E+02
        7     4.308861603E+01    -1.742562059E+01     1.960235493E+02
        8     3.925037268E+01    -2.151576082E+01     1.960235493E+02
        9    -3.925059582E+01     2.151542821E+01     1.960235493E+02
       10    -3.949472072E+01     3.793965480E+01     1.960235493E+02
       11     3.949463516E+01    -3.793977319E+01     1.960235493E+02
       12    -3.858179020E+01    -3.822958052E+01     1.960235493E+02
       13    -3.858179209E+01    -3.822957862E+01     2.020235493E+02
       14     3.949463341E+01    -3.793977495E+01     2.020235493E+02
       15    -3.949471897E+01     3.793965656E+01     2.020235493E+02
       16    -3.925033985E+01     2.151530519E+01     2.020235493E+02
       17     3.925011671E+01    -2.151563780E+01     2.020235493E+02
       18     4.308849587E+01    -1.742556112E+01     2.020235493E+02
       19    -4.308873790E+01     1.742489887E+01     2.020235493E+02
       20     4.159637719E+01    -2.773524507E+01     2.020235493E+02
! ... 9615 like lines cut
/wb,elem,start            !  set before creation of elements
/com,*********** Elements for Body 1 "antenna hub" ***********
et,1,187
eblock,19,solid,,3426
(19i9)
        1        1        1        1        0        0        0        0       10        0     1052     3850     4143     4052     4100     8642     9417     8640     8641
     9605     9414
        1        1        1        1        0        0        0        0       10        0     1053     4033     4052     4143     4100     9309     9417     9317     9314
     9414     9605
        1        1        1        1        0        0        0        0       10        0     1054     3819     4143     4033     4060     8521     9317     8518     8519
     9464     9311
        1        1        1        1        0        0        0        0       10        0     1055     3788     3819     4143     4033     8334     8521     8339     8337
     8518     9317
        1        1        1        1        0        0        0        0       10        0     1056     3788     4143     3850     4100     8339     8642     8336     8338
     9605     8641
        1        1        1        1        0        0        0        0       10        0     1057     3788     4033     4143     4100     8337     9317     8339     8338
     9314     9605
        1        1        1        1        0        0        0        0       10        0     1058     4033     4143     4052     4060     9317     9417     9309     9311
     9464     9410
        1        1        1        1        0        0        0        0       10        0     1059     3776     4052     4143     4060     8235     9417     8238     8236
     9410     9464
        1        1        1        1        0        0        0        0       10        0     1060     3776     3809     4143     4052     8230     8471     8238     8235
     8470     9417
        1        1        1        1        0        0        0        0       10        0     1061     3799     4143     3819     4060     8416     8521     8413     8415
     9464     8519
! ... 6833 like lines cut
!Material Id = {25B55352-961F-4A21-BA2B-9FD5EF5BA81D}
/com,*********** Elements for Body 2 "blocking part" ***********
et,2,186
keyo,2,2,1          ! set full integration on SOLID186
eblock,19,solid,,44
(19i9)
        2        2        2        2        0        0        0        0       20        0        1        4      106      107       12       21       69       70       13
      163      409      192      160      223      340      198      195      161      341      343      191
        2        2        2        2        0        0        0        0       20        0        2        4       12      109      110       21       13       52       53
      160      193      413      164      195      197      301      221      161      191      302      304
        2        2        2        2        0        0        0        0       20        0        3       12      126      118      109       13       42       51       52
      194      423      414      193      196      278      299      197      191      279      300      302
        2        2        2        2        0        0        0        0       20        0        4       12      107      125      126       13       70       43       42
      192      411      431      194      198      281      277      196      191      343      282      279
        2        2        2        2        0        0        0        0       20        0        5        5      100      101       11       20       63       64       14
      169      398      188      167      220      328      202      199      168      329      331      187
        2        2        2        2        0        0        0        0       20        0        6        5       11      135      134       20       14       41       40
      167      190      440      170      199      200      273      219      168      187      276      274
        2        2        2        2        0        0        0        0       20        0        7       11      116      117      135       14       59       60       41
      189      421      422      190      201      320      275      200      187      321      322      276
        2        2        2        2        0        0        0        0       20        0        8       11      101      115      116       14       64       58       59
      188      400      420      189      202      318      317      201      187      331      319      321
        2        2        2        2        0        0        0        0       20        0        9        3       87       88       10       22       75       76       15
      158      375      184      156      225      352      206      203      157      353      355      183
        2        2        2        2        0        0        0        0       20        0       10        3       10      119      120       22       15       49       48
      156      185      424      159      203      205      294      224      157      183      297      295
! ... 69 like lines cut
!Material Id = {C5E53C3C-D816-4DEF-B6C8-E14F52272F80}
/com,*********** Elements for Body 3 "base with columns " ***********
et,3,187
eblock,19,solid,,1007
(19i9)
        3        3        3        3        0        0        0        0       10        0       45      635      942      636      987     2181     2191     2178     2183
     2967     2195
        3        3        3        3        0        0        0        0       10        0       46      522      636      987      972     1380     2195     1385     1383
     2192     3042
        3        3        3        3        0        0        0        0       10        0       47      522      942      987      636     1382     2967     1385     1380
     2191     2195
        3        3        3        3        0        0        0        0       10        0       48      465      987      969      972     1094     3037     1092     1093
     3042     3035
        3        3        3        3        0        0        0        0       10        0       49      636      987      972      986     2195     3042     2192     2194
     3048     3041
        3        3        3        3        0        0        0        0       10        0       50      522      987      942      977     1385     2967     1382     1384
     3043     2965
        3        3        3        3        0        0        0        0       10        0       51      969      972      987      986     3035     3042     3037     3036
     3041     3048
        3        3        3        3        0        0        0        0       10        0       52      463      957      987      977     1080     3020     1083     1082
     3019     3043
        3        3        3        3        0        0        0        0       10        0       53      942      969      987      986     2964     3037     2967     2966
     3036     3048
        3        3        3        3        0        0        0        0       10        0       54      942      957      987      969     2963     3020     2967     2964
     3018     3037
! ... 1995 like lines cut
!Material Id = {A5B9FD74-60A9-4C5D-8969-E2EBC3360E69}
/wb,elem,end               !  done creating elements
/com,*********** Send User Defined Coordinate System(s) ***********
csys,0
toffst,273.15,  ! Temperature offset from absolute zero
/com,*********** Set Reference Temperature ***********
tref,-271.1
/wb,mat,start              !  starting to send materials
/com,*********** Send Materials ***********
Temperature = 'TEMP' ! Temperature
MP,DENS,1,2.77e-09,	! tonne mm^-3
MP,ALPX,1,2.3e-05,	! C^-1
MP,C,1,875000000,	! mm^2 s^-2 C^-1
MPTEMP,,,,,,,,
MPTEMP,1,-100
MPTEMP,2,0
MPTEMP,3,100
MPTEMP,4,200
MPDATA,KXX,1, ,114,144,165,175,	! tonne mm s^-3 C^-1
MPTEMP,,,,,,,,
MPTEMP,,,,,,,,
MPTEMP,1,0
MPTEMP,2,20
MPTEMP,3,100
MPDATA,RSVX,1, ,2.43e-05,2.67e-05,3.63e-05,	! ohm mm
MPTEMP,,,,,,,,
MP,EX,1,71000,	! tonne s^-2 mm^-1
MP,NUXY,1,0.33,
MP,MURX,1,1,

Temperature = 'TEMP' ! Temperature
MP,DENS,2,2.77e-09,	! tonne mm^-3
MP,ALPX,2,2.3e-05,	! C^-1
MP,C,2,875000000,	! mm^2 s^-2 C^-1
MPTEMP,,,,,,,,
MPTEMP,1,-100
MPTEMP,2,0
MPTEMP,3,100
MPTEMP,4,200
MPDATA,KXX,2, ,114,144,165,175,	! tonne mm s^-3 C^-1
MPTEMP,,,,,,,,
MPTEMP,,,,,,,,
MPTEMP,1,0
MPTEMP,2,20
MPTEMP,3,100
MPDATA,RSVX,2, ,2.43e-05,2.67e-05,3.63e-05,	! ohm mm
MPTEMP,,,,,,,,
MP,EX,2,71000,	! tonne s^-2 mm^-1
MP,NUXY,2,0.33,
MP,MURX,2,1,

Temperature = 'TEMP' ! Temperature
MP,DENS,3,2.77e-09,	! tonne mm^-3
MP,ALPX,3,2.3e-05,	! C^-1
MP,C,3,875000000,	! mm^2 s^-2 C^-1
MPTEMP,,,,,,,,
MPTEMP,1,-100
MPTEMP,2,0
MPTEMP,3,100
MPTEMP,4,200
MPDATA,KXX,3, ,114,144,165,175,	! tonne mm s^-3 C^-1
MPTEMP,,,,,,,,
MPTEMP,,,,,,,,
MPTEMP,1,0
MPTEMP,2,20
MPTEMP,3,100
MPDATA,RSVX,3, ,2.43e-05,2.67e-05,3.63e-05,	! ohm mm
MPTEMP,,,,,,,,
MP,EX,3,71000,	! tonne s^-2 mm^-1
MP,NUXY,3,0.33,
MP,MURX,3,1,

/wb,mat,end                !  done sending materials
!************************* Model Summary ********************
!antenna hub,	Aluminum Alloy,	matid,	1
!blocking part,	Aluminum Alloy,	matid,	2
!base with columns ,	Aluminum Alloy,	matid,	3
!************************* End Model Summary ********************
! get the diagonal of the bounding box. Needed later for other things
*get,_xmin,node,,mnloc,x
*get,_ymin,node,,mnloc,y
*get,_zmin,node,,mnloc,z
*get,_xmax,node,,mxloc,x
*get,_ymax,node,,mxloc,y
*get,_zmax,node,,mxloc,z
_ASMDIAG=(_xmax-_xmin)*(_xmax-_xmin)+(_ymax-_ymin)*(_ymax-_ymin)+(_zmax-_zmin)*(_zmax-_zmin)
_ASMDIAG=SQRT(_ASMDIAG)
/wb,contact,start          !  starting to send contact
/com,*********** Create Contact "Bonded - antenna hub To blocking part" ***********
/com,            Real Constant Set For Above Contact Is 5 & 4 
*set,tid,5
*set,cid,4
r,tid
r,cid
et,tid,170
et,cid,174
eblock,10,,,118
(15i9)
     7548        5        5        5        0     3262     3265     3329     3329     5680     5699     3329     5682
     7549        5        5        5        0     3255     3346     3256     3256     5616     5627     3256     5614
     7550        5        5        5        0     3298     3301     3321     3321     5905     5925     3321     5907
     7551        5        5        5        0     3241     3325     3326     3326     5472     6063     3326     5473
     7552        5        5        5        0     3243     3340     3252     3252     5491     5582     3252     5489
     7553        5        5        5        0     3319     3322     3330     3330     6027     6044     3330     6028
     7554        5        5        5        0     3252     3340     3341     3341     5582     6146     3341     5583
     7555        5        5        5        0     3300     3321     3301     3301     5919     5925     3301     5918
     7556        5        5        5        0     3296     3348     3299     3299     5886     5914     3299     5884
     7557        5        5        5        0     3254     3345     3255     3255     5606     5615     3255     5604
     7558        5        5        5        0     3254     3344     3345     3345     5605     6171     3345     5606
     7559        5        5        5        0     3298     3323     3307     3307     5908     5963     3307     5906
     7560        5        5        5        0     3255     3345     3346     3346     5615     6175     3346     5616
     7561        5        5        5        0     3256     3346     3347     3347     5627     6179     3347     5628
     7562        5        5        5        0     3299     3348     3300     3300     5914     5920     3300     5913
     7563        5        5        5        0     3260     3335     3263     3263     5663     5688     3263     5661
     7564        5        5        5        0     3307     3323     3308     3308     5963     5967     3308     5962
     7565        5        5        5        0     3258     3324     3325     3325     5645     6058     3325     5646
     7566        5        5        5        0     3241     3258     3325     3325     5471     5646     3325     5472
     7567        5        5        5        0     3248     3333     3334     3334     5542     6107     3334     5543
! ... 99 like lines cut
eblock,10,,,118
(15i9)
     7666        4        4        4        0     3262     3265     3329     3329     5680     5699     3329     5682
     7667        4        4        4        0     3255     3346     3256     3256     5616     5627     3256     5614
     7668        4        4        4        0     3298     3301     3321     3321     5905     5925     3321     5907
     7669        4        4        4        0     3241     3325     3326     3326     5472     6063     3326     5473
     7670        4        4        4        0     3243     3340     3252     3252     5491     5582     3252     5489
     7671        4        4        4        0     3319     3322     3330     3330     6027     6044     3330     6028
     7672        4        4        4        0     3252     3340     3341     3341     5582     6146     3341     5583
     7673        4        4        4        0     3300     3321     3301     3301     5919     5925     3301     5918
     7674        4        4        4        0     3296     3348     3299     3299     5886     5914     3299     5884
     7675        4        4        4        0     3254     3345     3255     3255     5606     5615     3255     5604
     7676        4        4        4        0     3254     3344     3345     3345     5605     6171     3345     5606
     7677        4        4        4        0     3298     3323     3307     3307     5908     5963     3307     5906
     7678        4        4        4        0     3255     3345     3346     3346     5615     6175     3346     5616
     7679        4        4        4        0     3256     3346     3347     3347     5627     6179     3347     5628
     7680        4        4        4        0     3299     3348     3300     3300     5914     5920     3300     5913
     7681        4        4        4        0     3260     3335     3263     3263     5663     5688     3263     5661
     7682        4        4        4        0     3307     3323     3308     3308     5963     5967     3308     5962
     7683        4        4        4        0     3258     3324     3325     3325     5645     6058     3325     5646
     7684        4        4        4        0     3241     3258     3325     3325     5471     5646     3325     5472
     7685        4        4        4        0     3248     3333     3334     3334     5542     6107     3334     5543
! ... 99 like lines cut
eblock,10,,,44
(15i9)
     7784        4        5        4        0        6        3        9        9      154      155        9      171
     7785        4        5        4        0        7        5        8        8      165      166        8      175
     7786        4        5        4        0       93       92        2        2      384      151        2      152
     7787        4        5        4        0      106      105        4        4      407      162        4      163
     7788        4        5        4        0      107      106        4       12      409      163      160      192
     7789        4        5        4        0      109       12        4      110      193      160      164      413
     7790        4        5        4        0      126       12      109      118      194      193      414      423
     7791        4        5        4        0      107       12      126      125      192      194      431      411
     7792        4        5        4        0      101      100        5       11      398      169      167      188
     7793        4        5        4        0      135       11        5      134      190      167      170      440
     7794        4        5        4        0      116       11      135      117      189      190      422      421
     7795        4        5        4        0      101       11      116      115      188      189      420      400
     7796        4        5        4        0       88       87        3       10      375      158      156      184
     7797        4        5        4        0      119       10        3      120      185      156      159      424
     7798        4        5        4        0      137       10      119      127      186      185      425      432
     7799        4        5        4        0       88       10      137      138      184      186      442      377
     7800        4        5        4        0       87       86        9        3      374      182      155      158
     7801        4        5        4        0       86       85        6        9      371      173      171      182
     7802        4        5        4        0      100       99        8        5      397      180      166      169
     7803        4        5        4        0       99       98        7        8      395      177      175      180
! ... 25 like lines cut
eblock,10,,,44
(15i9)
     7828        5        4        5        0        6        3        9        9      154      155        9      171
     7829        5        4        5        0        7        5        8        8      165      166        8      175
     7830        5        4        5        0       93       92        2        2      384      151        2      152
     7831        5        4        5        0      106      105        4        4      407      162        4      163
     7832        5        4        5        0      107      106        4       12      409      163      160      192
     7833        5        4        5        0      109       12        4      110      193      160      164      413
     7834        5        4        5        0      126       12      109      118      194      193      414      423
     7835        5        4        5        0      107       12      126      125      192      194      431      411
     7836        5        4        5        0      101      100        5       11      398      169      167      188
     7837        5        4        5        0      135       11        5      134      190      167      170      440
     7838        5        4        5        0      116       11      135      117      189      190      422      421
     7839        5        4        5        0      101       11      116      115      188      189      420      400
     7840        5        4        5        0       88       87        3       10      375      158      156      184
     7841        5        4        5        0      119       10        3      120      185      156      159      424
     7842        5        4        5        0      137       10      119      127      186      185      425      432
     7843        5        4        5        0       88       10      137      138      184      186      442      377
     7844        5        4        5        0       87       86        9        3      374      182      155      158
     7845        5        4        5        0       86       85        6        9      371      173      171      182
     7846        5        4        5        0      100       99        8        5      397      180      166      169
     7847        5        4        5        0       99       98        7        8      395      177      175      180
! ... 25 like lines cut
keyo,cid,8,2               ! auto create asymmetric contact (from Program Controlled setting)
keyo,cid,10,0              ! adjust contact stiffness each NR iteration (from Program Controlled setting)
keyo,cid,12,5              ! bonded always
keyo,cid,18,1              ! small sliding turned on by application
keyo,cid,2,0               ! augmented Lagrange (from Program Controlled setting)
keyo,cid,4,0               ! on Gauss point (from Program Controlled setting)
keyo,cid,9,1               ! ignore initial gaps/penetration
keyo,cid,7,0               ! No Prediction
rmod,tid,3,10.      ! FKN
rmod,tid,5,0.       ! ICONT
rmod,tid,6,0.       ! PINB
rmod,tid,10,0.      ! CNOF
rmod,tid,12,0.      ! FKT
rmod,tid,36,30      ! WB DSID
rmod,cid,3,10.      ! FKN
rmod,cid,5,0.       ! ICONT
rmod,cid,6,0.       ! PINB
rmod,cid,10,0.      ! CNOF
rmod,cid,12,0.      ! FKT
rmod,cid,36,30      ! WB DSID
/com,*********** Create Contact "No Separation - antenna hub To base with columns " ***********
/com,            Real Constant Set For Above Contact Is 7 & 6 
*set,tid,7
*set,cid,6
r,tid
r,cid
et,tid,170
et,cid,174
eblock,10,,,256
(15i9)
     7872        7        7        7        0     3630     3948     3950     3950     7426     8940     3950     7427
     7873        7        7        7        0     3629     3630     3950     3950     7416     7427     3950     7421
     7874        7        7        7        0     3259     3628     3949     3949     5657     7413     3949     5660
     7875        7        7        7        0     3627     3953     3628     3628     7408     7414     3628     7402
     7876        7        7        7        0     3260     3263     3948     3948     5661     5689     3948     5665
     7877        7        7        7        0     3259     3949     3270     3270     5660     5737     3270     5654
     7878        7        7        7        0     3260     3948     3630     3630     5665     7426     3630     5664
     7879        7        7        7        0     3269     3270     3949     3949     5730     5737     3949     5733
     7880        7        7        7        0     3631     3950     3632     3632     7437     7444     3632     7432
     7881        7        7        7        0     3263     3264     3948     3948     5687     5695     3948     5689
     7882        7        7        7        0     3265     3632     3950     3950     5700     7444     3950     5701
     7883        7        7        7        0     3262     3632     3265     3265     5683     5700     3265     5680
     7884        7        7        7        0     3264     3265     3950     3950     5692     5701     3950     5696
     7885        7        7        7        0     3264     3950     3948     3948     5696     8940     3948     5695
     7886        7        7        7        0     3261     3629     3951     3951     5672     7422     3951     5678
     7887        7        7        7        0     3267     3951     3631     3631     5721     7438     3631     5713
     7888        7        7        7        0     3629     3950     3951     3951     7421     8945     3951     7422
     7889        7        7        7        0     3631     3951     3950     3950     7438     8945     3950     7437
     7890        7        7        7        0     3261     3952     3627     3627     5679     7407     3627     5671
     7891        7        7        7        0     3267     3633     3952     3952     5714     7452     3952     5722
! ... 237 like lines cut
eblock,10,,,256
(15i9)
     8128        6        6        6        0     3630     3948     3950     3950     7426     8940     3950     7427
     8129        6        6        6        0     3629     3630     3950     3950     7416     7427     3950     7421
     8130        6        6        6        0     3259     3628     3949     3949     5657     7413     3949     5660
     8131        6        6        6        0     3627     3953     3628     3628     7408     7414     3628     7402
     8132        6        6        6        0     3260     3263     3948     3948     5661     5689     3948     5665
     8133        6        6        6        0     3259     3949     3270     3270     5660     5737     3270     5654
     8134        6        6        6        0     3260     3948     3630     3630     5665     7426     3630     5664
     8135        6        6        6        0     3269     3270     3949     3949     5730     5737     3949     5733
     8136        6        6        6        0     3631     3950     3632     3632     7437     7444     3632     7432
     8137        6        6        6        0     3263     3264     3948     3948     5687     5695     3948     5689
     8138        6        6        6        0     3265     3632     3950     3950     5700     7444     3950     5701
     8139        6        6        6        0     3262     3632     3265     3265     5683     5700     3265     5680
     8140        6        6        6        0     3264     3265     3950     3950     5692     5701     3950     5696
     8141        6        6        6        0     3264     3950     3948     3948     5696     8940     3948     5695
     8142        6        6        6        0     3261     3629     3951     3951     5672     7422     3951     5678
     8143        6        6        6        0     3267     3951     3631     3631     5721     7438     3631     5713
     8144        6        6        6        0     3629     3950     3951     3951     7421     8945     3951     7422
     8145        6        6        6        0     3631     3951     3950     3950     7438     8945     3950     7437
     8146        6        6        6        0     3261     3952     3627     3627     5679     7407     3627     5671
     8147        6        6        6        0     3267     3633     3952     3952     5714     7452     3952     5722
! ... 237 like lines cut
eblock,10,,,208
(15i9)
     8384        6        7        6        0      675      835      676      676     2458     2463      676     2454
     8385        6        7        6        0      490      814      491      491     1233     1236      491     1231
     8386        6        7        6        0      486      814      490      490     1218     1233      490     1215
     8387        6        7        6        0      486      676      814      814     1217     2462      814     1218
     8388        6        7        6        0      575      831      576      576     1767     1775      576     1764
     8389        6        7        6        0      579      831      580      580     1795     1803      580     1794
     8390        6        7        6        0      576      831      833      833     1775     2771      833     1776
     8391        6        7        6        0      579      833      831      831     1796     2771      831     1795
     8392        6        7        6        0      578      677      834      834     1789     2469      834     1790
     8393        6        7        6        0      577      834      675      675     1784     2457      675     1782
     8394        6        7        6        0      677      678      835      835     2468     2473      835     2470
     8395        6        7        6        0      675      834      835      835     2457     2774      835     2458
     8396        6        7        6        0      677      835      834      834     2470     2774      834     2469
     8397        6        7        6        0      835      836      676      676     2776     2464      676     2463
     8398        6        7        6        0      678      836      835      835     2474     2776      835     2473
     8399        6        7        6        0      676      836      814      814     2464     2737      814     2462
     8400        6        7        6        0      491      836      492      492     1237     1239      492     1235
     8401        6        7        6        0      491      814      836      836     1236     2737      836     1237
     8402        6        7        6        0      485      836      678      678     1211     2474      678     1210
     8403        6        7        6        0      485      492      836      836     1209     1239      836     1211
! ... 189 like lines cut
eblock,10,,,208
(15i9)
     8592        7        6        7        0      675      835      676      676     2458     2463      676     2454
     8593        7        6        7        0      490      814      491      491     1233     1236      491     1231
     8594        7        6        7        0      486      814      490      490     1218     1233      490     1215
     8595        7        6        7        0      486      676      814      814     1217     2462      814     1218
     8596        7        6        7        0      575      831      576      576     1767     1775      576     1764
     8597        7        6        7        0      579      831      580      580     1795     1803      580     1794
     8598        7        6        7        0      576      831      833      833     1775     2771      833     1776
     8599        7        6        7        0      579      833      831      831     1796     2771      831     1795
     8600        7        6        7        0      578      677      834      834     1789     2469      834     1790
     8601        7        6        7        0      577      834      675      675     1784     2457      675     1782
     8602        7        6        7        0      677      678      835      835     2468     2473      835     2470
     8603        7        6        7        0      675      834      835      835     2457     2774      835     2458
     8604        7        6        7        0      677      835      834      834     2470     2774      834     2469
     8605        7        6        7        0      835      836      676      676     2776     2464      676     2463
     8606        7        6        7        0      678      836      835      835     2474     2776      835     2473
     8607        7        6        7        0      676      836      814      814     2464     2737      814     2462
     8608        7        6        7        0      491      836      492      492     1237     1239      492     1235
     8609        7        6        7        0      491      814      836      836     1236     2737      836     1237
     8610        7        6        7        0      485      836      678      678     1211     2474      678     1210
     8611        7        6        7        0      485      492      836      836     1209     1239      836     1211
! ... 189 like lines cut
keyo,cid,8,2               ! auto create asymmetric contact (from Program Controlled setting)
keyo,cid,10,0              ! adjust contact stiffness each NR iteration (from Program Controlled setting)
keyo,cid,12,4              ! no separation always
keyo,cid,18,1              ! small sliding turned on by application
keyo,cid,2,0               ! augmented Lagrange (from Program Controlled setting)
keyo,cid,4,0               ! on Gauss point (from Program Controlled setting)
keyo,cid,9,1               ! ignore initial gaps/penetration
keyo,cid,7,0               ! No Prediction
rmod,tid,3,10.      ! FKN
rmod,tid,5,0.       ! ICONT
rmod,tid,6,0.       ! PINB
rmod,tid,10,0.      ! CNOF
rmod,tid,12,0.      ! FKT
rmod,tid,36,33      ! WB DSID
rmod,cid,3,10.      ! FKN
rmod,cid,5,0.       ! ICONT
rmod,cid,6,0.       ! PINB
rmod,cid,10,0.      ! CNOF
rmod,cid,12,0.      ! FKT
rmod,cid,36,33      ! WB DSID
/com,*********** Create Contact "Bonded - blocking part To base with columns " ***********
/com,            Real Constant Set For Above Contact Is 9 & 8 
*set,tid,9
*set,cid,8
r,tid
r,cid
et,tid,170
et,cid,174
eblock,10,,,16
(15i9)
     8800        9        9        9        0      107      106        4       12      409      163      160      192
     8801        9        9        9        0      109       12        4      110      193      160      164      413
     8802        9        9        9        0      126       12      109      118      194      193      414      423
     8803        9        9        9        0      107       12      126      125      192      194      431      411
     8804        9        9        9        0      101      100        5       11      398      169      167      188
     8805        9        9        9        0      135       11        5      134      190      167      170      440
     8806        9        9        9        0      116       11      135      117      189      190      422      421
     8807        9        9        9        0      101       11      116      115      188      189      420      400
     8808        9        9        9        0       88       87        3       10      375      158      156      184
     8809        9        9        9        0      119       10        3      120      185      156      159      424
     8810        9        9        9        0      137       10      119      127      186      185      425      432
     8811        9        9        9        0       88       10      137      138      184      186      442      377
     8812        9        9        9        0        1       94       93        2      147      386      152      145
     8813        9        9        9        0      128      129       94        1      433      388      147      148
     8814        9        9        9        0      143      144        1        2      448      149      145      153
     8815        9        9        9        0      144      136      128        1      441      434      148      149
-1
eblock,10,,,16
(15i9)
     8816        8        8        8        0      107      106        4       12      409      163      160      192
     8817        8        8        8        0      109       12        4      110      193      160      164      413
     8818        8        8        8        0      126       12      109      118      194      193      414      423
     8819        8        8        8        0      107       12      126      125      192      194      431      411
     8820        8        8        8        0      101      100        5       11      398      169      167      188
     8821        8        8        8        0      135       11        5      134      190      167      170      440
     8822        8        8        8        0      116       11      135      117      189      190      422      421
     8823        8        8        8        0      101       11      116      115      188      189      420      400
     8824        8        8        8        0       88       87        3       10      375      158      156      184
     8825        8        8        8        0      119       10        3      120      185      156      159      424
     8826        8        8        8        0      137       10      119      127      186      185      425      432
     8827        8        8        8        0       88       10      137      138      184      186      442      377
     8828        8        8        8        0        1       94       93        2      147      386      152      145
     8829        8        8        8        0      128      129       94        1      433      388      147      148
     8830        8        8        8        0      143      144        1        2      448      149      145      153
     8831        8        8        8        0      144      136      128        1      441      434      148      149
-1
eblock,10,,,24
(15i9)
     8832        8        9        8        0      484      480      483      483     1189     1188      483     1200
     8833        8        9        8        0      482      483      481      481     1197     1194      481     1193
     8834        8        9        8        0      478      482      481      481     1178     1193      481     1177
     8835        8        9        8        0      479      480      484      484     1183     1189      484     1184
     8836        8        9        8        0      477      479      484      484     1171     1184      484     1172
     8837        8        9        8        0      481      483      480      480     1194     1188      480     1187
     8838        8        9        8        0      489      486      485      485     1214     1206      485     1208
     8839        8        9        8        0      492      486      490      490     1216     1215      490     1232
     8840        8        9        8        0      485      487      489      489     1207     1222      489     1208
     8841        8        9        8        0      490      491      492      492     1231     1235      492     1232
     8842        8        9        8        0      487      488      489      489     1221     1225      489     1222
     8843        8        9        8        0      485      486      492      492     1206     1216      492     1209
     8844        8        9        8        0      498      499      497      497     1267     1264      497     1263
     8845        8        9        8        0      495      496      500      500     1253     1259      500     1254
     8846        8        9        8        0      493      495      500      500     1241     1254      500     1242
     8847        8        9        8        0      496      499      500      500     1258     1270      500     1259
     8848        8        9        8        0      494      498      497      497     1248     1263      497     1247
     8849        8        9        8        0      497      499      496      496     1264     1258      496     1257
     8850        8        9        8        0      627      628      629      629     2140     2144      629     2141
     8851        8        9        8        0      630      631      632      632     2150     2154      632     2151
! ... 5 like lines cut
eblock,10,,,24
(15i9)
     8856        9        8        9        0      484      480      483      483     1189     1188      483     1200
     8857        9        8        9        0      482      483      481      481     1197     1194      481     1193
     8858        9        8        9        0      478      482      481      481     1178     1193      481     1177
     8859        9        8        9        0      479      480      484      484     1183     1189      484     1184
     8860        9        8        9        0      477      479      484      484     1171     1184      484     1172
     8861        9        8        9        0      481      483      480      480     1194     1188      480     1187
     8862        9        8        9        0      489      486      485      485     1214     1206      485     1208
     8863        9        8        9        0      492      486      490      490     1216     1215      490     1232
     8864        9        8        9        0      485      487      489      489     1207     1222      489     1208
     8865        9        8        9        0      490      491      492      492     1231     1235      492     1232
     8866        9        8        9        0      487      488      489      489     1221     1225      489     1222
     8867        9        8        9        0      485      486      492      492     1206     1216      492     1209
     8868        9        8        9        0      498      499      497      497     1267     1264      497     1263
     8869        9        8        9        0      495      496      500      500     1253     1259      500     1254
     8870        9        8        9        0      493      495      500      500     1241     1254      500     1242
     8871        9        8        9        0      496      499      500      500     1258     1270      500     1259
     8872        9        8        9        0      494      498      497      497     1248     1263      497     1247
     8873        9        8        9        0      497      499      496      496     1264     1258      496     1257
     8874        9        8        9        0      627      628      629      629     2140     2144      629     2141
     8875        9        8        9        0      630      631      632      632     2150     2154      632     2151
! ... 5 like lines cut
keyo,cid,8,2               ! auto create asymmetric contact (from Program Controlled setting)
keyo,cid,10,0              ! adjust contact stiffness each NR iteration (from Program Controlled setting)
keyo,cid,12,5              ! bonded always
keyo,cid,18,1              ! small sliding turned on by application
keyo,cid,2,0               ! augmented Lagrange (from Program Controlled setting)
keyo,cid,4,0               ! on Gauss point (from Program Controlled setting)
keyo,cid,9,1               ! ignore initial gaps/penetration
keyo,cid,7,0               ! No Prediction
rmod,tid,3,10.      ! FKN
rmod,tid,5,0.       ! ICONT
rmod,tid,6,0.       ! PINB
rmod,tid,10,0.      ! CNOF
rmod,tid,12,0.      ! FKT
rmod,tid,36,36      ! WB DSID
rmod,cid,3,10.      ! FKN
rmod,cid,5,0.       ! ICONT
rmod,cid,6,0.       ! PINB
rmod,cid,10,0.      ! CNOF
rmod,cid,12,0.      ! FKT
rmod,cid,36,36      ! WB DSID
nsel,all
esel,all
/wb,contact,end            !  done creating contacts
/golist
/wb,load,start             !  starting to send loads
/com,*********** Fixed Supports ***********
CMBLOCK,_FIXEDSU,NODE,     2326
(8i10)
        13        14        15        16        17        18        19        20
        21        22        23        24        25        26        27        28
        29        30        31        32        33        34        35        36
        37        38        39        40        41        42        43        44
        45        46        47        48        49        50        51        52
        53        54        55        56        57        58        59        60
        61        62        63        64        65        66        67        68
        69        70        71        72        73        74        75        76
        77        78        79        80        81        82        83        84
       109       110       111       112       113       114       115       116
       117       118       119       120       121       122       123       124
       125       126       127       128       129       130       131       132
       133       134       135       136       137       138       139       140
       141       142       143       144       195       196       197       198
       199       200       201       202       203       204       205       206
       207       208       209       210       211       212       213       214
       215       216       217       218       219       220       221       222
       223       224       225       226       227       228       229       230
       231       232       233       234       235       236       237       238
       239       240       241       242       243       244       245       246
! ... 271 like lines cut
cmsel,s,_FIXEDSU
d,all,all
nsel,all
/com,*********** Define Force Using Surface Effect Elements ***********
local,12,0,0.,0.,0.,0.,0.,0.
csys,0
et,10,154
eblock,10,,,148
(15i9)
     8880       10       10       10       12        6        3        9        9      154      155        9      171
     8881       10       10       10       12        7        5        8        8      165      166        8      175
     8882       10       10       10       12       93       92        2        2      384      151        2      152
     8883       10       10       10       12      106      105        4        4      407      162        4      163
     8884       10       10       10       12      107      106        4       12      409      163      160      192
     8885       10       10       10       12      109       12        4      110      193      160      164      413
     8886       10       10       10       12      126       12      109      118      194      193      414      423
     8887       10       10       10       12      107       12      126      125      192      194      431      411
     8888       10       10       10       12      101      100        5       11      398      169      167      188
     8889       10       10       10       12      135       11        5      134      190      167      170      440
     8890       10       10       10       12      116       11      135      117      189      190      422      421
     8891       10       10       10       12      101       11      116      115      188      189      420      400
     8892       10       10       10       12       88       87        3       10      375      158      156      184
     8893       10       10       10       12      119       10        3      120      185      156      159      424
     8894       10       10       10       12      137       10      119      127      186      185      425      432
     8895       10       10       10       12       88       10      137      138      184      186      442      377
     8896       10       10       10       12       87       86        9        3      374      182      155      158
     8897       10       10       10       12       86       85        6        9      371      173      171      182
     8898       10       10       10       12      100       99        8        5      397      180      166      169
     8899       10       10       10       12       99       98        7        8      395      177      175      180
! ... 129 like lines cut
esel,s,type,,10
keyop,10,2,1                ! Apply load in local coordinate system
keyop,10,7,1                ! Use original area so load is constant in large deformation
keyop,10,11,2               ! Use real and not project area
esel,all
/com,*********** Define Force Using Surface Effect Elements ***********
local,13,0,0.,0.,0.,0.,0.,0.
csys,0
et,11,154
eblock,10,,,468
(15i9)
     9028       11       11       11       13     3401     3402     3332     3332     6447     6106     3332     6105
     9029       11       11       11       13     3335     3404     3664     3664     6115     6457     3664     6116
     9030       11       11       11       13     3399     3331     3330     3330     6099     6092     3330     6093
     9031       11       11       11       13     3334     3404     3335     3335     6112     6115     3335     6110
     9032       11       11       11       13     3329     3335     3664     3664     6083     6116     3664     6086
     9033       11       11       11       13     3333     3402     3403     3403     6108     6450     3403     6109
     9034       11       11       11       13     3329     3664     3398     3398     6086     6430     3398     6085
     9035       11       11       11       13     3333     3403     3334     3334     6109     6111     3334     6107
     9036       11       11       11       13     3334     3403     3404     3404     6111     6452     3404     6112
     9037       11       11       11       13     3332     3402     3333     3333     6106     6108     3333     6103
     9038       11       11       11       13     3332     3400     3401     3401     6104     6441     3401     6105
     9039       11       11       11       13     3322     3391     3663     3663     6045     6397     3663     6047
     9040       11       11       11       13     3331     3400     3332     3332     6100     6104     3332     6098
     9041       11       11       11       13     3400     3331     3399     3399     6100     6099     3399     6434
     9042       11       11       11       13     3330     3663     3399     3399     6094     6438     3399     6093
     9043       11       11       11       13     3322     3663     3330     3330     6047     6094     3330     6044
     9044       11       11       11       13     3336     3666     3383     3383     6125     6359     3383     6123
     9045       11       11       11       13     3341     3409     3410     3410     6150     6480     3410     6151
     9046       11       11       11       13     3340     3408     3409     3409     6147     6478     3409     6148
     9047       11       11       11       13     3341     3410     3342     3342     6151     6155     3342     6149
! ... 449 like lines cut
esel,s,type,,11
keyop,11,2,1                ! Apply load in local coordinate system
keyop,11,7,1                ! Use original area so load is constant in large deformation
keyop,11,11,2               ! Use real and not project area
esel,all
/gst,on,on
fini
*get,_numnode,node,0,count
*get,_numelem,elem,0,count
*get, _MAXELEMNUM, elem, 0, NUM, MAX
*get, _MAXNODENUM, node, 0, NUM, MAX
*get, _MAXELEMTYPE, etyp, 0, NUM, MAX
*get, _MAXREALCONST, real, 0, NUM, MAX
/go
/wb,load,end               !  done creating loads
/com,--- Number of total nodes = %_numnode%
/com,--- Number of contact elements = 1948
/com,--- Number of spring elements = 0
/com,--- Number of bearing elements = 0
/com,--- Number of solid elements = 4477
/com,--- Number of condensed parts = 0
/com,--- Number of total elements = %_numelem%
*get,_wallbsol,active,,time,wall
/com,****************************************************************************
/com,*************************    SOLUTION       ********************************
/com,****************************************************************************
/solu
antype,0                   ! static analysis
_thickRatio=0.333   ! Ratio of thick parts in the model
eqsl,sparse,,,,,1
cntr,print,1               ! print out contact info and also make no initial contact an error
dmpoption,emat,no             ! Don't combine emat file for DANSYS
dmpoption,esav,no             ! Don't combine esav file for DANSYS
nldiag,cont,iter           ! print out contact info each equilibrium iteration
rescontrol,,none                 ! Do not keep any restart files
/com,****************************************************
/com,******************* SOLVE FOR LS 1 OF 1 ****************
esel,s,type,,10
nsle
sfe,all,1,pres,1,0.
sfe,all,2,pres,1,0.
sfe,all,3,pres,1,2.98643115056755e-002
esel,s,type,,11
nsle
sfe,all,1,pres,1,0.
sfe,all,2,pres,1,0.
sfe,all,3,pres,1,-1.84483443264328e-002
nsel,all
esel,all
/nopr
/gopr
nsub,1,1,1
time,1.
outres,erase
outres,all,none
outres,nsol,all,
outres,rsol,all
outres,eangl,all
outres,etmp,all
outres,veng,all
outres,strs,all,
outres,epel,all,
outres,eppl,all,
outres,cont,all,
! *********** WB SOLVE COMMAND ***********
! check interactive state
*get,ANSINTER_,active,,int
*if,ANSINTER_,ne,0,then
/eof
*endif
solve
/com *************** Write FE CONNECTORS ********* 
CEWRITE,file,ce,,INTE
/com,****************************************************
/com,*************** FINISHED SOLVE FOR LS 1 *************
*get,_wallasol,active,,time,wall
/nopr
*get,_numnode,node,0,count
*get,_numelem,elem,0,count
*get, _MAXELEMNUM, elem, 0, NUM, MAX
*get, _MAXNODENUM, node, 0, NUM, MAX,,,INTERNAL
*get, _MAXELEMTYPE, etyp, 0, NUM, MAX
*get, _MAXREALCONST, real, 0, NUM, MAX
/gopr
/post1
xmlo,ENCODING,ISO-8859-1
xmlo,parm
/xml,parm,xml
fini
/gopr
*get,_walldone,active,,time,wall
_preptime=(_wallbsol-_wallstrt)*3600
_solvtime=(_wallasol-_wallbsol)*3600
_posttime=(_walldone-_wallasol)*3600
_totaltim=(_walldone-_wallstrt)*3600
*get,_dlbratio,active,0,solu,dlbr
*get,_combtime,active,0,solu,comb
/com,--- Number of total nodes = %_numnode%
/com,--- Number of total elements = %_numelem%
/com,--- Element load balance ratio = %_dlbratio%
/com,--- Time to combine distributed files = %_combtime%
/wb,file,end               ! done with WB generated input
