/batch
/config,noeldb,1     ! force off writing results to database
*get,_wallstrt,active,,time,wall
! ANSYS input file written by Workbench version 2019 R3
! File used for geometry attach: C:\Users\Rajatsurya\OneDrive\Documents\antenna booming mechanism fea analysis\pin-60mm.igs
/title,hinge pin analysis--Static Structural (A5)
*DIM,_wb_ProjectScratch_dir,string,248
_wb_ProjectScratch_dir(1) = 'C:\Users\Rajatsurya\OneDrive\Documents\antenna booming mechanism fea analysis\_ProjectScratch\Scr2073\'
*DIM,_wb_SolverFiles_dir,string,248
_wb_SolverFiles_dir(1) = 'C:\Users\Rajatsurya\OneDrive\Documents\antenna booming mechanism fea analysis\hinge pin analysis_files\dp0\SYS\MECH\'
*DIM,_wb_userfiles_dir,string,248
_wb_userfiles_dir(1) = 'C:\Users\Rajatsurya\OneDrive\Documents\antenna booming mechanism fea analysis\hinge pin analysis_files\user_files\'
/com,--- Data in consistent NMM units. See Solving Units in the help system for more information.
/units,MPA
/nopr
/wb,file,start              !  signify a WB generated input file
/prep7
! Turn off shape checking because checks already performed inside WB mesher.
! See help system for more information.
SHPP,OFF,,NOWARN
/nolist
etcon,set             ! allow ANSYS to choose best KEYOP's for 180x elements
/com,*********** Nodes for the whole assembly ***********
nblock,3,,706
(1i9,3e20.9e3)
        1    -1.419270861E+00     2.700000008E+01     1.127637403E-01
        2    -7.322093953E-01     2.700000049E+01     7.007628307E-01
        3     6.388267481E-01     2.700000033E+01     4.675551243E-01
        4    -1.419270801E+00     2.399999997E+01     1.127637058E-01
        5    -7.322090243E-01     2.399999982E+01     7.007626165E-01
        6     6.388269957E-01     2.399999988E+01     4.675549813E-01
        7    -1.419270890E+00     2.100000012E+01     1.127637574E-01
        8    -7.322095796E-01     2.100000075E+01     7.007629371E-01
        9     6.388266252E-01     2.100000050E+01     4.675551952E-01
       10    -1.419270801E+00     1.799999996E+01     1.127637058E-01
       11    -7.322090243E-01     1.799999975E+01     7.007626165E-01
       12     6.388269957E-01     1.799999983E+01     4.675549813E-01
       13    -1.419270890E+00     1.500000009E+01     1.127637574E-01
       14    -7.322095796E-01     1.500000054E+01     7.007629371E-01
       15     6.388266252E-01     1.500000036E+01     4.675551952E-01
       16    -1.419270890E+00     1.199999990E+01     1.127637574E-01
       17    -7.322095796E-01     1.199999941E+01     7.007629371E-01
       18     6.388266252E-01     1.199999960E+01     4.675551952E-01
       19    -1.419270890E+00     9.000000070E+00     1.127637574E-01
       20    -7.322095795E-01     9.000000432E+00     7.007629370E-01
! ... 623 like lines cut
/com,*********** Nodes for all Remote Points ***********
nblock,3
(1i9,3e20.9e3)
      643     2.265365058E-17    -6.040973488E-17     0.000000000E+00
-1
/wb,elem,start            !  set before creation of elements
/com,*********** Elements for Body 1 "pin-60mm-FreeParts|PartBody" ***********
et,1,186
keyo,1,2,1          ! set full integration on SOLID186
eblock,19,solid,,100
(19i9)
        1        1        1        1        0        0        0        0       20        0        1        1        2        3      187       60       59       58      188
      190      195      202      194      386      383      385      389      192      197      200      641
        1        1        1        1        0        0        0        0       20        0        2        1      187        3        2        4      185        6        5
      194      202      195      190      206      212      207      203      191      638      199      196
        1        1        1        1        0        0        0        0       20        0        3        4      185        6        5        7      183        9        8
      206      212      207      203      216      222      217      213      204      635      210      208
        1        1        1        1        0        0        0        0       20        0        4        7      183        9        8       10      181       12       11
      216      222      217      213      226      232      227      223      214      632      220      218
        1        1        1        1        0        0        0        0       20        0        5       10      181       12       11       13      179       15       14
      226      232      227      223      236      242      237      233      224      629      230      228
        1        1        1        1        0        0        0        0       20        0        6       13      179       15       14       16      177       18       17
      236      242      237      233      246      252      247      243      234      626      240      238
        1        1        1        1        0        0        0        0       20        0        7       16      177       18       17       19      175       21       20
      246      252      247      243      256      262      257      253      244      623      250      248
        1        1        1        1        0        0        0        0       20        0        8       19      175       21       20       22      173       24       23
      256      262      257      253      266      272      267      263      254      620      260      258
        1        1        1        1        0        0        0        0       20        0        9       22      173       24       23       25      171       27       26
      266      272      267      263      276      282      277      273      264      617      270      268
        1        1        1        1        0        0        0        0       20        0       10       25      171       27       26       28      169       30       29
      276      282      277      273      286      292      287      283      274      614      280      278
! ... 181 like lines cut
!Material Id = {4DE0C57B-6F5A-45E1-A82D-A27312F0F4D5}
/wb,elem,end               !  done creating elements
/com,*********** Send User Defined Coordinate System(s) ***********
csys,0
toffst,273.15,  ! Temperature offset from absolute zero
/com,*********** Set Reference Temperature ***********
tref,-271.1
/wb,mat,start              !  starting to send materials
/com,*********** Send Materials ***********
Temperature = 'TEMP' ! Temperature
MP,DENS,1,7.85e-09,	! tonne mm^-3
MP,ALPX,1,1.2e-05,	! C^-1
MP,C,1,434000000,	! mm^2 s^-2 C^-1
MP,KXX,1,60.5,	! tonne mm s^-3 C^-1
MP,RSVX,1,0.00017,	! ohm mm
MP,EX,1,200000,	! tonne s^-2 mm^-1
MP,NUXY,1,0.3,
MP,MURX,1,10000,

/wb,mat,end                !  done sending materials
!************************* Model Summary ********************
!pin-60mm-FreeParts|PartBody,	Structural Steel,	matid,	1
!************************* End Model Summary ********************
! get the diagonal of the bounding box. Needed later for other things
*get,_xmin,node,,mnloc,x
*get,_ymin,node,,mnloc,y
*get,_zmin,node,,mnloc,z
*get,_xmax,node,,mxloc,x
*get,_ymax,node,,mxloc,y
*get,_zmax,node,,mxloc,z
_ASMDIAG=(_xmax-_xmin)*(_xmax-_xmin)+(_ymax-_ymin)*(_ymax-_ymin)+(_zmax-_zmin)*(_zmax-_zmin)
_ASMDIAG=SQRT(_ASMDIAG)
/wb,contact,start          !  starting to send contact
/wb,contact,end            !  done creating contacts
/golist
/wb,load,start             !  starting to send loads
/com,*********** Fixed Supports ***********
CMBLOCK,_FIXEDSU,NODE,       44
(8i10)
        58        59        60        61        62        63        64        65
        66        67        68        69       108       109       110       111
       188       189       383       384       385       386       387       388
       389       390       391       392       393       394       395       396
       397       398       400       402       404       406       504       505
       507       508       510       642
cmsel,s,_FIXEDSU
d,all,all
nsel,all
/com,*********** Create Remote Point "Internal Remote Point" ***********
! -------- Remote Point Used by "Moment" --------
*set,tid,3
*set,cid,2
et,cid,174
et,tid,170
keyo,tid,2,1               ! Don't fix the pilot node
keyo,tid,4,111111
keyo,cid,12,5              ! Bonded Contact 
keyo,cid,4,1               ! Deformable RBE3 style load
keyo,cid,2,2               ! MPC style contact
eblock,10,,,120
(15i9)
      232        2        2        2        0      131      150       65       66      549      401      400      403
      233        2        2        2        0      132      152      150      131      551      586      549      548
      234        2        2        2        0      133      154      152      132      553      589      551      550
      235        2        2        2        0      134      156      154      133      555      592      553      552
      236        2        2        2        0      135      158      156      134      557      595      555      554
      237        2        2        2        0      136      160      158      135      559      598      557      556
      238        2        2        2        0      137      162      160      136      561      601      559      558
      239        2        2        2        0      138      164      162      137      563      604      561      560
      240        2        2        2        0      139      166      164      138      565      607      563      562
      241        2        2        2        0      140      168      166      139      567      610      565      564
      242        2        2        2        0      141      170      168      140      569      613      567      566
      243        2        2        2        0      142      172      170      141      571      616      569      568
      244        2        2        2        0      143      174      172      142      573      619      571      570
      245        2        2        2        0      144      176      174      143      575      622      573      572
      246        2        2        2        0      145      178      176      144      577      625      575      574
      247        2        2        2        0      146      180      178      145      579      628      577      576
      248        2        2        2        0      147      182      180      146      581      631      579      578
      249        2        2        2        0      148      184      182      147      583      634      581      580
      250        2        2        2        0      149      186      184      148      584      637      583      582
      251        2        2        2        0      109      189      186      149      507      640      584      506
! ... 101 like lines cut
*set,_npilot,643
_npilot30=_npilot
type,tid
mat ,cid
real,cid
tshape,pilo
en,352,_npilot
tshape
/com,*********** Construct Moment Using Remote Attachment ***********
/gst,on,on
fini
*get,_numnode,node,0,count
*get,_numelem,elem,0,count
*get, _MAXELEMNUM, elem, 0, NUM, MAX
*get, _MAXNODENUM, node, 0, NUM, MAX
*get, _MAXELEMTYPE, etyp, 0, NUM, MAX
*get, _MAXREALCONST, real, 0, NUM, MAX
/go
/wb,load,end               !  done creating loads
/com,--- Number of total nodes = %_numnode%
/com,--- Number of contact elements = 120
/com,--- Number of spring elements = 0
/com,--- Number of bearing elements = 0
/com,--- Number of solid elements = 100
/com,--- Number of condensed parts = 0
/com,--- Number of total elements = %_numelem%
*get,_wallbsol,active,,time,wall
/com,****************************************************************************
/com,*************************    SOLUTION       ********************************
/com,****************************************************************************
/solu
antype,0                   ! static analysis
_thickRatio=  1     ! Ratio of thick parts in the model
eqsl,pcg,1e-8,,,,,,1
cntr,print,1               ! print out contact info and also make no initial contact an error
dmpoption,emat,no             ! Don't combine emat file for DANSYS
dmpoption,esav,no             ! Don't combine esav file for DANSYS
nldiag,cont,iter           ! print out contact info each equilibrium iteration
rescontrol,,none                 ! Do not keep any restart files
/com,****************************************************
/com,******************* SOLVE FOR LS 1 OF 1 ****************
nsel,s,node,,643
f,all,mx,0.
f,all,my,131.308
f,all,mz,0.
nsel,all
/nopr
/gopr
nsub,1,1,1
time,1.
outres,erase
outres,all,none
outres,nsol,all,
outres,rsol,all
outres,eangl,all
outres,etmp,all
outres,veng,all
outres,strs,all,
outres,epel,all,
outres,eppl,all,
outres,cont,all,
! *********** WB SOLVE COMMAND ***********
! check interactive state
*get,ANSINTER_,active,,int
*if,ANSINTER_,ne,0,then
/eof
*endif
solve
/com *************** Write FE CONNECTORS ********* 
CEWRITE,file,ce,,INTE
/com,****************************************************
/com,*************** FINISHED SOLVE FOR LS 1 *************
*get,_wallasol,active,,time,wall
/nopr
*get,_numnode,node,0,count
*get,_numelem,elem,0,count
*get, _MAXELEMNUM, elem, 0, NUM, MAX
*get, _MAXNODENUM, node, 0, NUM, MAX,,,INTERNAL
*get, _MAXELEMTYPE, etyp, 0, NUM, MAX
*get, _MAXREALCONST, real, 0, NUM, MAX
/gopr
*get,_PCGITER,active,,solu,cgiter
/post1
xmlo,ENCODING,ISO-8859-1
xmlo,parm
/xml,parm,xml
fini
/gopr
*get,_walldone,active,,time,wall
_preptime=(_wallbsol-_wallstrt)*3600
_solvtime=(_wallasol-_wallbsol)*3600
_posttime=(_walldone-_wallasol)*3600
_totaltim=(_walldone-_wallstrt)*3600
*get,_dlbratio,active,0,solu,dlbr
*get,_combtime,active,0,solu,comb
/com,--- Number of total nodes = %_numnode%
/com,--- Number of total elements = %_numelem%
/com,--- Element load balance ratio = %_dlbratio%
/com,--- Time to combine distributed files = %_combtime%
/wb,file,end               ! done with WB generated input
