/batch
/config,noeldb,1     ! force off writing results to database
*get,_wallstrt,active,,time,wall
! ANSYS input file written by Workbench version 2019 R3
! File used for geometry attach: C:\Users\Rajatsurya\OneDrive\Documents\antenna booming mechanism fea analysis\spring design 1 fea analysis_files\dp0\SYS\DM\SYS.agdb
/title,spring design 1 fea analysis--Static Structural (A5)
*DIM,_wb_ProjectScratch_dir,string,248
_wb_ProjectScratch_dir(1) = 'C:\Users\Rajatsurya\OneDrive\Documents\antenna booming mechanism fea analysis\_ProjectScratch\ScrDF5F\'
*DIM,_wb_SolverFiles_dir,string,248
_wb_SolverFiles_dir(1) = 'C:\Users\Rajatsurya\OneDrive\Documents\antenna booming mechanism fea analysis\spring design 1 fea analysis_files\dp0\SYS\MECH\'
*DIM,_wb_userfiles_dir,string,248
_wb_userfiles_dir(1) = 'C:\Users\Rajatsurya\OneDrive\Documents\antenna booming mechanism fea analysis\spring design 1 fea analysis_files\user_files\'
/com,--- Data in consistent NMM units. See Solving Units in the help system for more information.
/units,MPA
/nopr
/wb,file,start              !  signify a WB generated input file
/prep7
! Turn off shape checking because checks already performed inside WB mesher.
! See help system for more information.
SHPP,OFF,,NOWARN
/nolist
etcon,set             ! allow ANSYS to choose best KEYOP's for 180x elements
/com,*********** Nodes for the whole assembly ***********
nblock,3,,22937
(1i9,3e20.9e3)
        1     5.071121791E+00    -4.364609983E-01     2.307287656E+02
        2     5.097225235E+00     7.719675602E-02     2.306744163E+02
        3     5.395774763E+00    -7.719675529E-02     2.292135837E+02
        4     4.539303557E+00     9.292957321E-02     2.301741902E+02
        5     4.688578322E+00     1.573281715E-02     2.294437739E+02
        6     5.368411919E+00    -6.214543217E-01     2.292712344E+02
        7     4.816695166E+00    -4.988821488E-01     2.293688274E+02
        8     4.500931149E+00    -3.938770120E-01     2.298363581E+02
        9     4.606384025E+00    -3.680467434E-01     2.303995240E+02
       10     5.833087752E+00    -6.898639533E-01     2.296003791E+02
       11     5.938555319E+00    -6.640089096E-01     2.301638736E+02
       12     5.622932771E+00    -5.590578899E-01     2.306311113E+02
       13    -5.302444384E+00    -7.855519583E-02     2.289452695E+02
       14     3.519915546E+00     3.730762688E+00     2.302368618E+02
       15    -1.796106887E-01     5.199054139E+00     2.298062570E+02
       16    -3.833586287E+00     3.621056517E+00     2.293748639E+02
       17    -5.190555615E+00     7.855519644E-02     2.274587305E+02
       18    -4.660219399E+00    -1.136669153E-01     2.286548854E+02
       19    -4.574837521E+00    -3.362962829E-02     2.278711090E+02
       20    -3.585233950E+00     3.797684500E+00     2.279001374E+02
! ... 20833 like lines cut
/wb,elem,start            !  set before creation of elements
/com,*********** Elements for Body 1 "PartBody" ***********
et,1,187
eblock,19,solid,,7633
(19i9)
        1        1        1        1        0        0        0        0       10        0        1     1650     2170     1652     2168    14875    14885    14872    14873
    17138    14884
        1        1        1        1        0        0        0        0       10        0        2     1650     2170     2168     2169    14875    17138    14873    14874
    17140    17137
        1        1        1        1        0        0        0        0       10        0        3      309      310     3924     3946     6392     6402     6395     6396
     6404    20170
        1        1        1        1        0        0        0        0       10        0        4      587     3530     3554     1799     8180    19484     8182     8179
    15541    15543
        1        1        1        1        0        0        0        0       10        0        5      671     3401     3439     1827     8726    19255     8729     8725
    15665    15669
        1        1        1        1        0        0        0        0       10        0        6       15     4328       16     4312     4505     4513     4499     4502
    20827     4512
        1        1        1        1        0        0        0        0       10        0        7      254      277     3989     3966     6040     6189     6044     6043
     6187    20229
        1        1        1        1        0        0        0        0       10        0        8      532      538     3598     3595     7824     7863     7826     7825
     7862    19587
        1        1        1        1        0        0        0        0       10        0        9       44       45     4282     4302     4673     4683     4676     4677
     4685    20780
        1        1        1        1        0        0        0        0       10        0       10      234      252     1687     4021     5914     6027     5917     5918
     6030    15039
! ... 15247 like lines cut
!Material Id = {33BAB172-A25F-4B1C-A191-C00EE7909DF3}
/wb,elem,end               !  done creating elements
/com,*********** Send User Defined Coordinate System(s) ***********
csys,0
toffst,273.15,  ! Temperature offset from absolute zero
/com,*********** Set Reference Temperature ***********
tref,-271.1
/wb,mat,start              !  starting to send materials
/com,*********** Send Materials ***********
Temperature = 'TEMP' ! Temperature
MP,DENS,1,8.3e-09,	! tonne mm^-3
MP,ALPX,1,1.8e-05,	! C^-1
MP,C,1,385000000,	! mm^2 s^-2 C^-1
MP,KXX,1,401,	! tonne mm s^-3 C^-1
MPTEMP,,,,,,,,
MPTEMP,1,0
MPTEMP,2,20
MPTEMP,3,100
MPDATA,RSVX,1, ,1.548e-05,1.694e-05,2.277e-05,	! ohm mm
MPTEMP,,,,,,,,
MP,EX,1,110000,	! tonne s^-2 mm^-1
MP,NUXY,1,0.34,
MP,MURX,1,1,

/wb,mat,end                !  done sending materials
!************************* Model Summary ********************
!PartBody,	Copper Alloy,	matid,	1
!************************* End Model Summary ********************
! get the diagonal of the bounding box. Needed later for other things
*get,_xmin,node,,mnloc,x
*get,_ymin,node,,mnloc,y
*get,_zmin,node,,mnloc,z
*get,_xmax,node,,mxloc,x
*get,_ymax,node,,mxloc,y
*get,_zmax,node,,mxloc,z
_ASMDIAG=(_xmax-_xmin)*(_xmax-_xmin)+(_ymax-_ymin)*(_ymax-_ymin)+(_zmax-_zmin)*(_zmax-_zmin)
_ASMDIAG=SQRT(_ASMDIAG)
/wb,contact,start          !  starting to send contact
/wb,contact,end            !  done creating contacts
/golist
/wb,load,start             !  starting to send loads
/com,*********** Fixed Supports ***********
CMBLOCK,_FIXEDSU,NODE,      276
(8i10)
         2         3         4         5        13        14        15        16
        17        18        19        20        21        22        23        24
        25        26        27        28        29        30        31        32
        33        34        35        36        47        48      1602      1603
      1604      1605      1606      1607      1608      1609      1610      1611
      4292      4293      4294      4295      4296      4297      4306      4307
      4308      4309      4310      4311      4312      4313      4314      4315
      4316      4317      4318      4319      4320      4321      4322      4323
      4324      4325      4326      4327      4328      4329      4330      4331
      4437      4440      4441      4442      4444      4448      4449      4450
      4452      4455      4456      4460      4483      4485      4486      4487
      4488      4490      4491      4493      4494      4495      4496      4497
      4498      4499      4501      4502      4503      4504      4505      4506
      4508      4510      4511      4512      4513      4514      4515      4516
      4518      4519      4520      4521      4522      4523      4524      4525
      4526      4527      4528      4529      4530      4531      4532      4533
      4534      4535      4536      4537      4538      4539      4540      4541
      4542      4543      4544      4545      4546      4547      4549      4550
      4551      4553      4556      4559      4560      4564      4565      4566
      4567      4568      4569      4570      4571      4572      4573      4574
! ... 15 like lines cut
cmsel,s,_FIXEDSU
d,all,all
nsel,all
/com,******* Constant Zero Displacement X *******
CMBLOCK,_DISPZEROUX,NODE,      157
(8i10)
      1562      1566      1567      1568      1574      1575      1576      1577
      1578      1579      1580      1581      1582      1583      1586      1587
      1588      1589      1590      1594      1595      1596      1597      1598
      1599      2128      2129      2130      2131      2132      2133      2134
      2135      2136      2146      2147      2148      2149      2150      2151
      2152      2187      2188      2189      2190      2191      2192      2193
     14415     14420     14422     14446     14449     14450     14452     14453
     14456     14491     14493     14494     14497     14498     14499     14503
     14504     14505     14510     14511     14513     14517     14518     14520
     14523     14524     14525     14526     14527     14528     14529     14530
     14531     14532     14533     14534     14538     14539     14540     14544
     14545     14546     14550     14551     14564     14566     14568     14570
     14573     14575     14577     14578     14579     14580     14581     14582
     14594     14596     14601     14602     14603     14608     14609     14611
     14615     14616     14617     14618     14622     14623     14624     14628
     14629     14630     14634     14635     17038     17039     17041     17042
     17043     17045     17046     17047     17050     17051     17055     17056
     17061     17062     17063     17065     17066     17069     17070     17073
     17074     17089     17090     17091     17092     17093     17094     17175
     17176     17177     17178     17179     17180
cmsel,s,_DISPZEROUX
d,all,ux,0
nsel,all
/com,******* Constant Zero Displacement Y *******
CMBLOCK,_DISPZEROUY,NODE,      157
(8i10)
      1562      1566      1567      1568      1574      1575      1576      1577
      1578      1579      1580      1581      1582      1583      1586      1587
      1588      1589      1590      1594      1595      1596      1597      1598
      1599      2128      2129      2130      2131      2132      2133      2134
      2135      2136      2146      2147      2148      2149      2150      2151
      2152      2187      2188      2189      2190      2191      2192      2193
     14415     14420     14422     14446     14449     14450     14452     14453
     14456     14491     14493     14494     14497     14498     14499     14503
     14504     14505     14510     14511     14513     14517     14518     14520
     14523     14524     14525     14526     14527     14528     14529     14530
     14531     14532     14533     14534     14538     14539     14540     14544
     14545     14546     14550     14551     14564     14566     14568     14570
     14573     14575     14577     14578     14579     14580     14581     14582
     14594     14596     14601     14602     14603     14608     14609     14611
     14615     14616     14617     14618     14622     14623     14624     14628
     14629     14630     14634     14635     17038     17039     17041     17042
     17043     17045     17046     17047     17050     17051     17055     17056
     17061     17062     17063     17065     17066     17069     17070     17073
     17074     17089     17090     17091     17092     17093     17094     17175
     17176     17177     17178     17179     17180
cmsel,s,_DISPZEROUY
d,all,uy,0
nsel,all
/gst,on,on
fini
*get,_numnode,node,0,count
*get,_numelem,elem,0,count
*get, _MAXELEMNUM, elem, 0, NUM, MAX
*get, _MAXNODENUM, node, 0, NUM, MAX
*get, _MAXELEMTYPE, etyp, 0, NUM, MAX
*get, _MAXREALCONST, real, 0, NUM, MAX
/go
/wb,load,end               !  done creating loads
/com,--- Number of total nodes = %_numnode%
/com,--- Number of contact elements = 0
/com,--- Number of spring elements = 0
/com,--- Number of bearing elements = 0
/com,--- Number of solid elements = 7633
/com,--- Number of condensed parts = 0
/com,--- Number of total elements = %_numelem%
*get,_wallbsol,active,,time,wall
/com,****************************************************************************
/com,*************************    SOLUTION       ********************************
/com,****************************************************************************
/solu
antype,0                   ! static analysis
_thickRatio=  0     ! Ratio of thick parts in the model
eqsl,sparse,,,,,1
cntr,print,1               ! print out contact info and also make no initial contact an error
dmpoption,emat,no             ! Don't combine emat file for DANSYS
dmpoption,esav,no             ! Don't combine esav file for DANSYS
nldiag,cont,iter           ! print out contact info each equilibrium iteration
rescontrol,,none                 ! Do not keep any restart files
/com,****************************************************
/com,******************* SOLVE FOR LS 1 OF 1 ****************
/com,*** Set Displacements ***
CMBLOCK,_CM36UZ_ZP,NODE,      157
(8i10)
      1562      1566      1567      1568      1574      1575      1576      1577
      1578      1579      1580      1581      1582      1583      1586      1587
      1588      1589      1590      1594      1595      1596      1597      1598
      1599      2128      2129      2130      2131      2132      2133      2134
      2135      2136      2146      2147      2148      2149      2150      2151
      2152      2187      2188      2189      2190      2191      2192      2193
     14415     14420     14422     14446     14449     14450     14452     14453
     14456     14491     14493     14494     14497     14498     14499     14503
     14504     14505     14510     14511     14513     14517     14518     14520
     14523     14524     14525     14526     14527     14528     14529     14530
     14531     14532     14533     14534     14538     14539     14540     14544
     14545     14546     14550     14551     14564     14566     14568     14570
     14573     14575     14577     14578     14579     14580     14581     14582
     14594     14596     14601     14602     14603     14608     14609     14611
     14615     14616     14617     14618     14622     14623     14624     14628
     14629     14630     14634     14635     17038     17039     17041     17042
     17043     17045     17046     17047     17050     17051     17055     17056
     17061     17062     17063     17065     17066     17069     17070     17073
     17074     17089     17090     17091     17092     17093     17094     17175
     17176     17177     17178     17179     17180
cmsel,s,_CM36UZ_ZP
d,all,uz,205.
nsel,all

/com,*** Component For All Non-Zero UZ Displacements ***
cmsel,s,_CM36uz_zp
cm,_DISPNONZEROUZ,NODE
nsel,all

/nopr
/gopr
nsub,1,1,1
time,1.
outres,erase
outres,all,none
outres,nsol,all,
outres,rsol,all
outres,eangl,all
outres,etmp,all
outres,veng,all
outres,strs,all,
outres,epel,all,
outres,eppl,all,
outres,cont,all,
! *********** WB SOLVE COMMAND ***********
! check interactive state
*get,ANSINTER_,active,,int
*if,ANSINTER_,ne,0,then
/eof
*endif
solve
/com *************** Write FE CONNECTORS ********* 
CEWRITE,file,ce,,INTE
/com,****************************************************
/com,*************** FINISHED SOLVE FOR LS 1 *************
*get,_wallasol,active,,time,wall
/nopr
*get,_numnode,node,0,count
*get,_numelem,elem,0,count
*get, _MAXELEMNUM, elem, 0, NUM, MAX
*get, _MAXNODENUM, node, 0, NUM, MAX,,,INTERNAL
*get, _MAXELEMTYPE, etyp, 0, NUM, MAX
*get, _MAXREALCONST, real, 0, NUM, MAX
/gopr
/post1
xmlo,ENCODING,ISO-8859-1
xmlo,parm
/xml,parm,xml
fini
/gopr
*get,_walldone,active,,time,wall
_preptime=(_wallbsol-_wallstrt)*3600
_solvtime=(_wallasol-_wallbsol)*3600
_posttime=(_walldone-_wallasol)*3600
_totaltim=(_walldone-_wallstrt)*3600
*get,_dlbratio,active,0,solu,dlbr
*get,_combtime,active,0,solu,comb
/com,--- Number of total nodes = %_numnode%
/com,--- Number of total elements = %_numelem%
/com,--- Element load balance ratio = %_dlbratio%
/com,--- Time to combine distributed files = %_combtime%
/wb,file,end               ! done with WB generated input
