/batch
/config,noeldb,1     ! force off writing results to database
*get,_wallstrt,active,,time,wall
! ANSYS input file written by Workbench version 2019 R3
! File used for geometry attach: C:\Users\Rajatsurya\OneDrive\Documents\antenna booming mechanism fea analysis\box actual size with female hinge -3D printing.igs
/title,box fea analysis--Static Structural (A5)
*DIM,_wb_ProjectScratch_dir,string,248
_wb_ProjectScratch_dir(1) = 'C:\Users\Rajatsurya\OneDrive\Documents\antenna booming mechanism fea analysis\_ProjectScratch\ScrEF04\'
*DIM,_wb_SolverFiles_dir,string,248
_wb_SolverFiles_dir(1) = 'C:\Users\Rajatsurya\OneDrive\Documents\antenna booming mechanism fea analysis\box fea analysis_files\dp0\SYS\MECH\'
*DIM,_wb_userfiles_dir,string,248
_wb_userfiles_dir(1) = 'C:\Users\Rajatsurya\OneDrive\Documents\antenna booming mechanism fea analysis\box fea analysis_files\user_files\'
/com,--- Data in consistent NMM units. See Solving Units in the help system for more information.
/units,MPA
/nopr
/wb,file,start              !  signify a WB generated input file
/prep7
! Turn off shape checking because checks already performed inside WB mesher.
! See help system for more information.
SHPP,OFF,,NOWARN
/nolist
etcon,set             ! allow ANSYS to choose best KEYOP's for 180x elements
/com,*********** Nodes for the whole assembly ***********
nblock,3,,15891
(1i9,3e20.9e3)
        1     4.225000000E+01     4.000000000E+01     1.900000000E+02
        2     3.775000000E+01     4.000000000E+01     1.900000000E+02
        3     4.213987716E+01     3.930471176E+01     1.900000000E+02
        4     4.182028824E+01     3.867748318E+01     1.900000000E+02
        5     4.132251682E+01     3.817971176E+01     1.900000000E+02
        6     4.069528824E+01     3.786012284E+01     1.900000000E+02
        7     4.000000000E+01     3.775000000E+01     1.900000000E+02
        8     3.930471176E+01     3.786012284E+01     1.900000000E+02
        9     3.867748318E+01     3.817971176E+01     1.900000000E+02
       10     3.817971176E+01     3.867748318E+01     1.900000000E+02
       11     3.786012284E+01     3.930471176E+01     1.900000000E+02
       12     3.786012284E+01     4.069528824E+01     1.900000000E+02
       13     3.817971176E+01     4.132251682E+01     1.900000000E+02
       14     3.867748318E+01     4.182028824E+01     1.900000000E+02
       15     3.930471176E+01     4.213987716E+01     1.900000000E+02
       16     4.000000000E+01     4.225000000E+01     1.900000000E+02
       17     4.069528824E+01     4.213987716E+01     1.900000000E+02
       18     4.132251682E+01     4.182028824E+01     1.900000000E+02
       19     4.182028824E+01     4.132251682E+01     1.900000000E+02
       20     4.213987716E+01     4.069528824E+01     1.900000000E+02
! ... 14428 like lines cut
/wb,elem,start            !  set before creation of elements
/com,*********** Elements for Body 1 "box actual size with female hinge -3D printing-FreeParts|PartBody" ***********
et,1,187
eblock,19,solid,,7017
(19i9)
        1        1        1        1        0        0        0        0       10        0        1      194     2534     1427     2369     3699    10147     3695     3696
    14196    10144
        1        1        1        1        0        0        0        0       10        0        2      193     2534     1427      194     3691    10147     3688     3686
     3699     3695
        1        1        1        1        0        0        0        0       10        0        3      192     1427      193     2534     3682     3688     3678     3685
    10147     3691
        1        1        1        1        0        0        0        0       10        0        4     1427     2369     2534     2497    10144    14196    10147    10146
    14194    14423
        1        1        1        1        0        0        0        0       10        0        5      192     1413     1427     2534     3681    10081     3682     3685
    10085    10147
        1        1        1        1        0        0        0        0       10        0        6      191     1413     2534     2484     3673    10085     3677     3676
    10083    14392
        1        1        1        1        0        0        0        0       10        0        7      191     2534     1413      192     3677    10085     3673     3671
     3685     3681
        1        1        1        1        0        0        0        0       10        0        8      191     2534     2462     2484     3677    14341     3675     3676
    14392    14335
        1        1        1        1        0        0        0        0       10        0        9      191     2534      192     2462     3677     3685     3671     3675
    14341     3684
        1        1        1        1        0        0        0        0       10        0       10      192     2534      193     2462     3685     3691     3678     3684
    14341     3690
! ... 14015 like lines cut
!Material Id = {6C0C8211-9DE7-44DE-9297-4CB6DDD304AA}
/wb,elem,end               !  done creating elements
/com,*********** Send User Defined Coordinate System(s) ***********
csys,0
toffst,273.15,  ! Temperature offset from absolute zero
/com,*********** Set Reference Temperature ***********
tref,-271.1
/wb,mat,start              !  starting to send materials
/com,*********** Send Materials ***********
Temperature = 'TEMP' ! Temperature
MP,DENS,1,2.77e-09,	! tonne mm^-3
MP,ALPX,1,2.3e-05,	! C^-1
MP,C,1,875000000,	! mm^2 s^-2 C^-1
MPTEMP,,,,,,,,
MPTEMP,1,-100
MPTEMP,2,0
MPTEMP,3,100
MPTEMP,4,200
MPDATA,KXX,1, ,114,144,165,175,	! tonne mm s^-3 C^-1
MPTEMP,,,,,,,,
MPTEMP,,,,,,,,
MPTEMP,1,0
MPTEMP,2,20
MPTEMP,3,100
MPDATA,RSVX,1, ,2.43e-05,2.67e-05,3.63e-05,	! ohm mm
MPTEMP,,,,,,,,
MP,EX,1,71000,	! tonne s^-2 mm^-1
MP,NUXY,1,0.33,
MP,MURX,1,1,

/wb,mat,end                !  done sending materials
!************************* Model Summary ********************
!box actual size with female hinge -3D printing-FreeParts|PartBody,	Aluminum Alloy,	matid,	1
!************************* End Model Summary ********************
! get the diagonal of the bounding box. Needed later for other things
*get,_xmin,node,,mnloc,x
*get,_ymin,node,,mnloc,y
*get,_zmin,node,,mnloc,z
*get,_xmax,node,,mxloc,x
*get,_ymax,node,,mxloc,y
*get,_zmax,node,,mxloc,z
_ASMDIAG=(_xmax-_xmin)*(_xmax-_xmin)+(_ymax-_ymin)*(_ymax-_ymin)+(_zmax-_zmin)*(_zmax-_zmin)
_ASMDIAG=SQRT(_ASMDIAG)
/wb,contact,start          !  starting to send contact
/wb,contact,end            !  done creating contacts
/golist
/wb,load,start             !  starting to send loads
/com,*********** Fixed Supports ***********
CMBLOCK,_FIXEDSU,NODE,     2289
(8i10)
       297       298       299       300       301       302       303       304
       305       306       307       308       309       310       311       312
       313       314       315       316       317       318       319       320
       321       322       323       324       325       326       327       328
       329       330       331       332       333       334       335       336
       337       338       339       340       341       342       343       344
       345       346       347       348       349       350       351       352
       353       354       355       356       357       358       359       360
       361       376       377       378       379       380       381       382
       383       384       385       386       387       388       389       390
       391       392       393       394       395       396       397       398
       399       400       401       402       403       404       405       406
       504       506       512       513       514       515       516       517
       522       523       524       525       526       527       532       533
       537       538       540       542       545       546       547       548
       584       585       586       587       588       589       590       591
       592       593       594       595       596       597       598       599
       600       601       602       603       604       605       606       607
       608       609       610       611       612       613       614       615
       616       617       618       619       620       621       622       623
! ... 267 like lines cut
cmsel,s,_FIXEDSU
d,all,all
nsel,all
/com,*********** Define Force Using Surface Effect Elements ***********
local,12,0,0.,0.,0.,0.,0.,0.
csys,0
et,2,154
eblock,10,,,368
(15i9)
    11728        2        2        2       12     1439     1542     1541     1541    10235    10814     1541    10234
    11729        2        2        2       12     1433     1491     1515     1515    10177    10602     1515    10179
    11730        2        2        2       12     1439     1472     1475     1475    10231    10494     1475    10232
    11731        2        2        2       12     1459     1548     1482     1482    10400    10552     1482    10398
    11732        2        2        2       12     1444     1512     1518     1518    10282    10713     1518    10283
    11733        2        2        2       12     1433     1493     1471     1471    10178    10488     1471    10174
    11734        2        2        2       12     1455     1515     1491     1491    10368    10602     1491    10367
    11735        2        2        2       12     1457     1513     1527     1527    10386    10719     1527    10387
    11736        2        2        2       12     1470     1539     1501     1501    10481    10658     1501    10478
    11737        2        2        2       12     1434     1529     1510     1510    10189    10702     1510    10188
    11738        2        2        2       12     1441     1476     1474     1474    10250    10507     1474    10248
    11739        2        2        2       12     1486     1539     1512     1512    10574    10714     1512    10573
    11740        2        2        2       12     1458     1498     1499     1499    10392    10639     1499    10393
    11741        2        2        2       12     1432     1508     1469     1469    10168    10473     1469    10164
    11742        2        2        2       12     1442     1469     1494     1494    10259    10470     1494    10261
    11743        2        2        2       12     1437     1556     1451     1451    10215    10344     1451    10211
    11744        2        2        2       12     1443     1503     1524     1524    10274    10668     1524    10275
    11745        2        2        2       12     1435     1533     1506     1506    10197    10685     1506    10195
    11746        2        2        2       12     1439     1450     1472     1472    10230    10331     1472    10231
    11747        2        2        2       12     1451     1492     1528     1528    10341    10607     1528    10343
! ... 349 like lines cut
esel,s,type,,2
keyop,2,2,1                ! Apply load in local coordinate system
keyop,2,7,1                ! Use original area so load is constant in large deformation
keyop,2,11,2               ! Use real and not project area
esel,all
/gst,on,on
fini
*get,_numnode,node,0,count
*get,_numelem,elem,0,count
*get, _MAXELEMNUM, elem, 0, NUM, MAX
*get, _MAXNODENUM, node, 0, NUM, MAX
*get, _MAXELEMTYPE, etyp, 0, NUM, MAX
*get, _MAXREALCONST, real, 0, NUM, MAX
/go
/wb,load,end               !  done creating loads
/com,--- Number of total nodes = %_numnode%
/com,--- Number of contact elements = 368
/com,--- Number of spring elements = 0
/com,--- Number of bearing elements = 0
/com,--- Number of solid elements = 7017
/com,--- Number of condensed parts = 0
/com,--- Number of total elements = %_numelem%
*get,_wallbsol,active,,time,wall
/com,****************************************************************************
/com,*************************    SOLUTION       ********************************
/com,****************************************************************************
/solu
antype,0                   ! static analysis
_thickRatio=  0     ! Ratio of thick parts in the model
eqsl,sparse,,,,,1
cntr,print,1               ! print out contact info and also make no initial contact an error
dmpoption,emat,no             ! Don't combine emat file for DANSYS
dmpoption,esav,no             ! Don't combine esav file for DANSYS
nldiag,cont,iter           ! print out contact info each equilibrium iteration
rescontrol,,none                 ! Do not keep any restart files
/com,****************************************************
/com,******************* SOLVE FOR LS 1 OF 1 ****************
esel,s,type,,2
nsle
sfe,all,1,pres,1,-5.80541150216209e-004
sfe,all,2,pres,1,0.
sfe,all,3,pres,1,0.
nsel,all
esel,all
/nopr
/gopr
nsub,1,1,1
time,1.
outres,erase
outres,all,none
outres,nsol,all,
outres,rsol,all
outres,eangl,all
outres,etmp,all
outres,veng,all
outres,strs,all,
outres,epel,all,
outres,eppl,all,
outres,cont,all,
! *********** WB SOLVE COMMAND ***********
! check interactive state
*get,ANSINTER_,active,,int
*if,ANSINTER_,ne,0,then
/eof
*endif
solve
/com *************** Write FE CONNECTORS ********* 
CEWRITE,file,ce,,INTE
/com,****************************************************
/com,*************** FINISHED SOLVE FOR LS 1 *************
*get,_wallasol,active,,time,wall
/nopr
*get,_numnode,node,0,count
*get,_numelem,elem,0,count
*get, _MAXELEMNUM, elem, 0, NUM, MAX
*get, _MAXNODENUM, node, 0, NUM, MAX,,,INTERNAL
*get, _MAXELEMTYPE, etyp, 0, NUM, MAX
*get, _MAXREALCONST, real, 0, NUM, MAX
/gopr
/post1
xmlo,ENCODING,ISO-8859-1
xmlo,parm
/xml,parm,xml
fini
/gopr
*get,_walldone,active,,time,wall
_preptime=(_wallbsol-_wallstrt)*3600
_solvtime=(_wallasol-_wallbsol)*3600
_posttime=(_walldone-_wallasol)*3600
_totaltim=(_walldone-_wallstrt)*3600
*get,_dlbratio,active,0,solu,dlbr
*get,_combtime,active,0,solu,comb
/com,--- Number of total nodes = %_numnode%
/com,--- Number of total elements = %_numelem%
/com,--- Element load balance ratio = %_dlbratio%
/com,--- Time to combine distributed files = %_combtime%
/wb,file,end               ! done with WB generated input
