/batch
/config,noeldb,1     ! force off writing results to database
*get,_wallstrt,active,,time,wall
! ANSYS input file written by Workbench version 2019 R3
! File used for geometry attach: C:\Users\Rajatsurya\AppData\Local\Temp\WB_LAPTOP-6LCRPCG5_Rajatsurya_832_10\unsaved_project_files\dp0\SYS\DM\SYS.agdb
/title,unsaved_project--Static Structural (A5)
*DIM,_wb_ProjectScratch_dir,string,248
_wb_ProjectScratch_dir(1) = 'C:\Users\Rajatsurya\AppData\Local\Temp\WB_LAPTOP-6LCRPCG5_Rajatsurya_832_10\_ProjectScratch\Scr4197\'
*DIM,_wb_SolverFiles_dir,string,248
_wb_SolverFiles_dir(1) = 'C:\Users\Rajatsurya\AppData\Local\Temp\WB_LAPTOP-6LCRPCG5_Rajatsurya_832_10\unsaved_project_files\dp0\SYS\MECH\'
*DIM,_wb_userfiles_dir,string,248
_wb_userfiles_dir(1) = 'C:\Users\Rajatsurya\AppData\Local\Temp\WB_LAPTOP-6LCRPCG5_Rajatsurya_832_10\unsaved_project_files\user_files\'
/com,--- Data in consistent NMM units. See Solving Units in the help system for more information.
/units,MPA
/nopr
/wb,file,start              !  signify a WB generated input file
/prep7
! Turn off shape checking because checks already performed inside WB mesher.
! See help system for more information.
SHPP,OFF,,NOWARN
/nolist
etcon,set             ! allow ANSYS to choose best KEYOP's for 180x elements
/com,*********** Nodes for the whole assembly ***********
nblock,3,,3300
(1i9,3e20.9e3)
        1    -4.275000000E+01    -4.050000000E+01     5.000000000E-01
        2    -3.825000000E+01    -4.050000000E+01     5.000000000E-01
        3    -4.209099930E+01    -3.890901879E+01     5.000000000E-01
        4    -4.049997220E+01    -3.825000001E+01     5.000000000E-01
        5    -3.890899890E+01    -3.890902058E+01     5.000000000E-01
        6    -3.890900070E+01    -4.209098121E+01     5.000000000E-01
        7    -4.050002780E+01    -4.274999999E+01     5.000000000E-01
        8    -4.209100110E+01    -4.209097942E+01     5.000000000E-01
        9    -4.275000000E+01     4.050000000E+01     5.000000000E-01
       10    -3.825000000E+01     4.050000000E+01     5.000000000E-01
       11    -4.209099930E+01     4.209098121E+01     5.000000000E-01
       12    -4.049997220E+01     4.274999999E+01     5.000000000E-01
       13    -3.890899890E+01     4.209097942E+01     5.000000000E-01
       14    -3.890900070E+01     3.890901879E+01     5.000000000E-01
       15    -4.050002780E+01     3.825000001E+01     5.000000000E-01
       16    -4.209100110E+01     3.890902058E+01     5.000000000E-01
       17     4.275000000E+01    -4.050000000E+01     5.000000000E-01
       18     3.825000000E+01    -4.050000000E+01     5.000000000E-01
       19     4.209099930E+01    -4.209098121E+01     5.000000000E-01
       20     4.049997220E+01    -4.274999999E+01     5.000000000E-01
! ... 2981 like lines cut
/wb,elem,start            !  set before creation of elements
/com,*********** Elements for Body 1 "blocking part" ***********
et,1,187
eblock,19,solid,,1576
(19i9)
        1        1        1        1        0        0        0        0       10        0        1      280      470      522      502     2136     2940     2138     2137
     2938     2998
        1        1        1        1        0        0        0        0       10        0        2      280      409      522      470     2135     2713     2138     2136
     2711     2940
        1        1        1        1        0        0        0        0       10        0        3      352      522      409      505     2475     2713     2472     2474
     2999     2712
        1        1        1        1        0        0        0        0       10        0        4      280      352      522      409     2133     2475     2138     2135
     2472     2713
        1        1        1        1        0        0        0        0       10        0        5       16      280      522      502      656     2138      661      660
     2137     2998
        1        1        1        1        0        0        0        0       10        0        6      409      522      470      505     2713     2940     2711     2712
     2999     2939
        1        1        1        1        0        0        0        0       10        0        7       16      280      352      522      656     2133      658      661
     2138     2475
        1        1        1        1        0        0        0        0       10        0        8       16      522      279      502      661     2131      655      660
     2998     2130
        1        1        1        1        0        0        0        0       10        0        9      470      522      493      505     2940     2988     2937     2939
     2999     2987
        1        1        1        1        0        0        0        0       10        0       10      470      493      522      502     2937     2988     2940     2938
     2986     2998
! ... 3133 like lines cut
!Material Id = {61D9D47E-FE8E-4813-B2CA-258A3022D0AF}
/wb,elem,end               !  done creating elements
/com,*********** Send User Defined Coordinate System(s) ***********
csys,0
toffst,273.15,  ! Temperature offset from absolute zero
/com,*********** Set Reference Temperature ***********
tref,22.
/wb,mat,start              !  starting to send materials
/com,*********** Send Materials ***********
Temperature = 'TEMP' ! Temperature
MP,DENS,1,2.77e-09,	! tonne mm^-3
MP,ALPX,1,2.3e-05,	! C^-1
MP,C,1,875000000,	! mm^2 s^-2 C^-1
MPTEMP,,,,,,,,
MPTEMP,1,-100
MPTEMP,2,0
MPTEMP,3,100
MPTEMP,4,200
MPDATA,KXX,1, ,114,144,165,175,	! tonne mm s^-3 C^-1
MPTEMP,,,,,,,,
MPTEMP,,,,,,,,
MPTEMP,1,0
MPTEMP,2,20
MPTEMP,3,100
MPDATA,RSVX,1, ,2.43e-05,2.67e-05,3.63e-05,	! ohm mm
MPTEMP,,,,,,,,
MP,EX,1,71000,	! tonne s^-2 mm^-1
MP,NUXY,1,0.33,
MP,MURX,1,1,

/wb,mat,end                !  done sending materials
!************************* Model Summary ********************
!blocking part,	Aluminum Alloy,	matid,	1
!************************* End Model Summary ********************
! get the diagonal of the bounding box. Needed later for other things
*get,_xmin,node,,mnloc,x
*get,_ymin,node,,mnloc,y
*get,_zmin,node,,mnloc,z
*get,_xmax,node,,mxloc,x
*get,_ymax,node,,mxloc,y
*get,_zmax,node,,mxloc,z
_ASMDIAG=(_xmax-_xmin)*(_xmax-_xmin)+(_ymax-_ymin)*(_ymax-_ymin)+(_zmax-_zmin)*(_zmax-_zmin)
_ASMDIAG=SQRT(_ASMDIAG)
/wb,contact,start          !  starting to send contact
/wb,contact,end            !  done creating contacts
/golist
/wb,load,start             !  starting to send loads
/com,*********** Fixed Supports ***********
CMBLOCK,_FIXEDSU,NODE,      360
(8i10)
       145       146       147       148       149       150       151       152
       153       154       155       156       157       158       159       160
       161       162       163       164       165       166       167       168
       169       170       171       172       173       174       175       176
       177       178       179       180       181       182       183       184
       185       186       187       188       189       190       191       192
       193       194       195       196       197       198       199       200
       201       202       203       204       205       206       207       208
       209       210       211       212       213       214       215       216
       217       218       219       220       221       222       223       224
       225       226       227       228       229       230       231       232
       233       234       235       236       237       238       239       240
       241       242       243       244       245       246       247       248
       249       250       251       252       253       254       255       256
       257       258       259       260       261       262       263       264
      1482      1483      1484      1485      1486      1489      1490      1491
      1492      1495      1496      1497      1505      1506      1507      1513
      1514      1515      1518      1519      1520      1524      1525      1526
      1528      1529      1530      1533      1534      1535      1537      1538
      1539      1540      1541      1542      1545      1546      1547      1549
! ... 25 like lines cut

cmsel,s,_FIXEDSU
d,all,all
nsel,all
/com,*********** Define Force Using Surface Effect Elements ***********
local,12,0,0.,0.,0.,0.,0.,0.
csys,0
et,2,154
eblock,10,,,116
(15i9)
     2337        2        2        2       12       50      369      376      376      939     2555      376      940
     2338        2        2        2       12      163      375      164      164     1582     1592      164     1580
     2339        2        2        2       12      179      180      376      376     1651     1661      376     1655
     2340        2        2        2       12       43      211      212      212      882     1830      212      883
     2341        2        2        2       12       51      180      181      181      945     1657      181      946
     2342        2        2        2       12      193      194      375      375     1724     1733      375     1726
     2343        2        2        2       12      192      207      206      206     1719     1791      206     1718
     2344        2        2        2       12      178      179      376      376     1642     1655      376     1646
     2345        2        2        2       12       50      376       51       51      940      948       51      934
     2346        2        2        2       12       92      198       93       93     1213     1218       93     1209
     2347        2        2        2       12       51      376      180      180      948     1661      180      945
     2348        2        2        2       12       35      185       75       75      819     1077       75      816
     2349        2        2        2       12       88      370       89       89     1183     1191       89     1178
     2350        2        2        2       12      208      374      207      207     1814     1803      207     1800
     2351        2        2        2       12       41      210       42       42      866      874       42      861
     2352        2        2        2       12      371      209       41       41     1823      865       41      868
     2353        2        2        2       12      370       88      165      165     1183     1180      165     1598
     2354        2        2        2       12      164      370      165      165     1591     1598      165     1590
     2355        2        2        2       12      209      210       41       41     1819      866       41      865
     2356        2        2        2       12       84      170      169      169     1152     1608      169     1151
! ... 97 like lines cut
esel,s,type,,2
keyop,2,2,1                ! Apply load in local coordinate system
keyop,2,7,1                ! Use original area so load is constant in large deformation
keyop,2,11,2               ! Use real and not project area
esel,all
/gst,on,on
fini
*get,_numnode,node,0,count
*get,_numelem,elem,0,count
*get, _MAXELEMNUM, elem, 0, NUM, MAX
*get, _MAXNODENUM, node, 0, NUM, MAX
*get, _MAXELEMTYPE, etyp, 0, NUM, MAX
*get, _MAXREALCONST, real, 0, NUM, MAX
/go
/wb,load,end               !  done creating loads
/com,--- Number of total nodes = %_numnode%
/com,--- Number of contact elements = 116
/com,--- Number of spring elements = 0
/com,--- Number of bearing elements = 0
/com,--- Number of solid elements = 1576
/com,--- Number of condensed parts = 0
/com,--- Number of total elements = %_numelem%
*get,_wallbsol,active,,time,wall
/com,****************************************************************************
/com,*************************    SOLUTION       ********************************
/com,****************************************************************************
/solu
antype,0                   ! static analysis
_thickRatio=  0     ! Ratio of thick parts in the model
eqsl,sparse,,,,,1
cntr,print,1               ! print out contact info and also make no initial contact an error
dmpoption,emat,no             ! Don't combine emat file for DANSYS
dmpoption,esav,no             ! Don't combine esav file for DANSYS
nldiag,cont,iter           ! print out contact info each equilibrium iteration
rescontrol,,none                 ! Do not keep any restart files
/com,****************************************************
/com,******************* SOLVE FOR LS 1 OF 1 ****************
esel,s,type,,2
nsle
sfe,all,1,pres,1,0.
sfe,all,2,pres,1,0.
sfe,all,3,pres,1,-9.90708677822499e-003
nsel,all
esel,all
/nopr
/gopr
nsub,1,1,1
time,1.
outres,erase
outres,all,none
outres,nsol,all,
outres,rsol,all
outres,eangl,all
outres,etmp,all
outres,veng,all
outres,strs,all,
outres,epel,all,
outres,eppl,all,
outres,cont,all,
! *********** WB SOLVE COMMAND ***********
! check interactive state
*get,ANSINTER_,active,,int
*if,ANSINTER_,ne,0,then
/eof
*endif
solve
/com *************** Write FE CONNECTORS ********* 
CEWRITE,file,ce,,INTE
/com,****************************************************
/com,*************** FINISHED SOLVE FOR LS 1 *************
*get,_wallasol,active,,time,wall
/nopr
*get,_numnode,node,0,count
*get,_numelem,elem,0,count
*get, _MAXELEMNUM, elem, 0, NUM, MAX
*get, _MAXNODENUM, node, 0, NUM, MAX,,,INTERNAL
*get, _MAXELEMTYPE, etyp, 0, NUM, MAX
*get, _MAXREALCONST, real, 0, NUM, MAX
/gopr
/post1
xmlo,ENCODING,ISO-8859-1
xmlo,parm
/xml,parm,xml
fini
/gopr
*get,_walldone,active,,time,wall
_preptime=(_wallbsol-_wallstrt)*3600
_solvtime=(_wallasol-_wallbsol)*3600
_posttime=(_walldone-_wallasol)*3600
_totaltim=(_walldone-_wallstrt)*3600
*get,_dlbratio,active,0,solu,dlbr
*get,_combtime,active,0,solu,comb
/com,--- Number of total nodes = %_numnode%
/com,--- Number of total elements = %_numelem%
/com,--- Element load balance ratio = %_dlbratio%
/com,--- Time to combine distributed files = %_combtime%
/wb,file,end               ! done with WB generated input
