/batch
/config,noeldb,1     ! force off writing results to database
*get,_wallstrt,active,,time,wall
! ANSYS input file written by Workbench version 2019 R3
! File used for geometry attach: C:\Users\Rajatsurya\OneDrive\Documents\antenna booming mechanism fea analysis\lid actual size with male hinge-3D printing.igs
/title,lid with hinge fea analysis--Static Structural (A5)
*DIM,_wb_ProjectScratch_dir,string,248
_wb_ProjectScratch_dir(1) = 'C:\Users\Rajatsurya\OneDrive\Documents\antenna booming mechanism fea analysis\_ProjectScratch\ScrD496\'
*DIM,_wb_SolverFiles_dir,string,248
_wb_SolverFiles_dir(1) = 'C:\Users\Rajatsurya\OneDrive\Documents\antenna booming mechanism fea analysis\lid with hinge fea analysis_files\dp0\SYS\MECH\'
*DIM,_wb_userfiles_dir,string,248
_wb_userfiles_dir(1) = 'C:\Users\Rajatsurya\OneDrive\Documents\antenna booming mechanism fea analysis\lid with hinge fea analysis_files\user_files\'
/com,--- Data in consistent NMM units. See Solving Units in the help system for more information.
/units,MPA
/nopr
/wb,file,start              !  signify a WB generated input file
/prep7
! Turn off shape checking because checks already performed inside WB mesher.
! See help system for more information.
SHPP,OFF,,NOWARN
/nolist
etcon,set             ! allow ANSYS to choose best KEYOP's for 180x elements
/com,*********** Nodes for the whole assembly ***********
nblock,3,,2635
(1i9,3e20.9e3)
        1     5.000000000E+01     5.000000000E+01     0.000000000E+00
        2    -5.000000000E+01     5.000000000E+01     0.000000000E+00
        3     4.285714286E+01     5.000000000E+01     0.000000000E+00
        4     3.571428571E+01     5.000000000E+01     0.000000000E+00
        5     2.857142857E+01     5.000000000E+01     0.000000000E+00
        6     2.142857143E+01     5.000000000E+01     0.000000000E+00
        7     1.428571429E+01     5.000000000E+01     0.000000000E+00
        8     7.142857143E+00     5.000000000E+01     0.000000000E+00
        9     1.065814104E-14     5.000000000E+01     0.000000000E+00
       10    -7.142857143E+00     5.000000000E+01     0.000000000E+00
       11    -1.428571429E+01     5.000000000E+01     0.000000000E+00
       12    -2.142857143E+01     5.000000000E+01     0.000000000E+00
       13    -2.857142857E+01     5.000000000E+01     0.000000000E+00
       14    -3.571428571E+01     5.000000000E+01     0.000000000E+00
       15    -4.285714286E+01     5.000000000E+01     0.000000000E+00
       16     5.000000000E+01    -5.000000000E+01     0.000000000E+00
       17     5.000000000E+01    -4.285714286E+01     0.000000000E+00
       18     5.000000000E+01    -3.571428571E+01     0.000000000E+00
       19     5.000000000E+01    -2.857142857E+01     0.000000000E+00
       20     5.000000000E+01    -2.142857143E+01     0.000000000E+00
! ... 2377 like lines cut
/wb,elem,start            !  set before creation of elements
/com,*********** Elements for Body 1 "lid actual size with male hinge-3D printing-FreeParts|PartBody" ***********
et,1,187
eblock,19,solid,,1036
(19i9)
        1        1        1        1        0        0        0        0       10        0        1      287      389      457      451     1850     2223     1853     1852
     2221     2395
        1        1        1        1        0        0        0        0       10        0        2      287      389      393      457     1850     2217     1851     1853
     2223     2237
        1        1        1        1        0        0        0        0       10        0        3      203      287      393      457     1481     1851     1482     1483
     1853     2237
        1        1        1        1        0        0        0        0       10        0        4      114      457      393      449     1095     2237     1093     1094
     2393     2236
        1        1        1        1        0        0        0        0       10        0        5      393      457      431      449     2237     2381     2235     2236
     2393     2379
        1        1        1        1        0        0        0        0       10        0        6       24      457      114      449      599     1095      593      598
     2393     1094
        1        1        1        1        0        0        0        0       10        0        7       24      431      457      449      597     2381      599      598
     2379     2393
        1        1        1        1        0        0        0        0       10        0        8       86      287      457      451      931     1853      937      936
     1852     2395
        1        1        1        1        0        0        0        0       10        0        9       86      457      287      203      937     1853      931      930
     1483     1481
        1        1        1        1        0        0        0        0       10        0       10      114      203      393      457     1090     1482     1093     1095
     1483     2237
! ... 2053 like lines cut
!Material Id = {04018329-DCD5-4853-AD83-DBDD6CF8A35A}
/wb,elem,end               !  done creating elements
/com,*********** Send User Defined Coordinate System(s) ***********
csys,0
toffst,273.15,  ! Temperature offset from absolute zero
/com,*********** Set Reference Temperature ***********
tref,-271.1
/wb,mat,start              !  starting to send materials
/com,*********** Send Materials ***********
Temperature = 'TEMP' ! Temperature
MP,DENS,1,2.77e-09,	! tonne mm^-3
MP,ALPX,1,2.3e-05,	! C^-1
MP,C,1,875000000,	! mm^2 s^-2 C^-1
MPTEMP,,,,,,,,
MPTEMP,1,-100
MPTEMP,2,0
MPTEMP,3,100
MPTEMP,4,200
MPDATA,KXX,1, ,114,144,165,175,	! tonne mm s^-3 C^-1
MPTEMP,,,,,,,,
MPTEMP,,,,,,,,
MPTEMP,1,0
MPTEMP,2,20
MPTEMP,3,100
MPDATA,RSVX,1, ,2.43e-05,2.67e-05,3.63e-05,	! ohm mm
MPTEMP,,,,,,,,
MP,EX,1,71000,	! tonne s^-2 mm^-1
MP,NUXY,1,0.33,
MP,MURX,1,1,

/wb,mat,end                !  done sending materials
!************************* Model Summary ********************
!lid actual size with male hinge-3D printing-FreeParts|PartBody,	Aluminum Alloy,	matid,	1
!************************* End Model Summary ********************
! get the diagonal of the bounding box. Needed later for other things
*get,_xmin,node,,mnloc,x
*get,_ymin,node,,mnloc,y
*get,_zmin,node,,mnloc,z
*get,_xmax,node,,mxloc,x
*get,_ymax,node,,mxloc,y
*get,_zmax,node,,mxloc,z
_ASMDIAG=(_xmax-_xmin)*(_xmax-_xmin)+(_ymax-_ymin)*(_ymax-_ymin)+(_zmax-_zmin)*(_zmax-_zmin)
_ASMDIAG=SQRT(_ASMDIAG)
/wb,contact,start          !  starting to send contact
/wb,contact,end            !  done creating contacts
/golist
/wb,load,start             !  starting to send loads
/com,*********** Fixed Supports ***********
CMBLOCK,_FIXEDSU,NODE,      367
(8i10)
        57        58        59        60        61        62        63        64
        65        66        67        68        69        70        71        72
        73        74        75        76        77        78        79        80
       100       101       102       103       104       105       106       107
       108       109       110       112       113       115       116       117
       118       119       120       121       122       123       124       125
       232       233       234       235       236       237       238       239
       240       241       242       243       244       245       246       247
       248       249       250       251       252       253       254       255
       303       304       305       306       307       308       309       310
       311       312       313       314       316       317       318       319
       320       321       322       323       324       325       326       327
       328       329       330       332       333       334       335       336
       337       338       339       340       341       342       343       344
       776       777       781       782       783       786       793       794
       795       796       798       799       804       805       808       809
       815       816       817       820       821       822       824       825
       826       827       829       830       831       832       836       837
       840       843       844       847       850       854       855       856
       859       860       861       863       864       865       866       868
! ... 26 like lines cut
cmsel,s,_FIXEDSU
d,all,all
nsel,all
/com,*********** Define Force Using Surface Effect Elements ***********
local,12,0,0.,0.,0.,0.,0.,0.
csys,0
et,2,154
eblock,10,,,141
(15i9)
     1927        2        2        2       12      350      370      364      364     2022     2103      364     2021
     1928        2        2        2       12      349      371      362      362     2016     2096      362     2014
     1929        2        2        2       12      349      357      365      365     2013     2069      365     2015
     1930        2        2        2       12      345      379      354      354     1975     2050      354     1970
     1931        2        2        2       12      350      363      370      370     2020     2100      370     2022
     1932        2        2        2       12      355      375      345      345     2056     1974      345     1971
     1933        2        2        2       12      354      374      361      361     2049     2090      361     2047
     1934        2        2        2       12      346      381      359      359     1989     2080      359     1986
     1935        2        2        2       12      345      348      379      379     1968     2009      379     1975
     1936        2        2        2       12      349      365      371      371     2015     2108      371     2016
     1937        2        2        2       12      351      356      360      360     2025     2062      360     2026
     1938        2        2        2       12      127      152      142      142     1146     1225      142     1145
     1939        2        2        2       12      353      359      367      367     2039     2079      367     2040
     1940        2        2        2       12      348      376      365      365     2008     2109      365     2007
     1941        2        2        2       12      345      351      348      348     1969     2005      348     1968
     1942        2        2        2       12      348      357      379      379     2006     2070      379     2009
     1943        2        2        2       12      354      361      366      366     2047     2089      366     2048
     1944        2        2        2       12      143      167      146      146     1229     1241      146     1228
     1945        2        2        2       12      348      365      357      357     2007     2069      357     2006
     1946        2        2        2       12      347      377      360      360     1999     2084      360     1997
! ... 122 like lines cut
esel,s,type,,2
keyop,2,2,1                ! Apply load in local coordinate system
keyop,2,7,1                ! Use original area so load is constant in large deformation
keyop,2,11,2               ! Use real and not project area
esel,all
/gst,on,on
fini
*get,_numnode,node,0,count
*get,_numelem,elem,0,count
*get, _MAXELEMNUM, elem, 0, NUM, MAX
*get, _MAXNODENUM, node, 0, NUM, MAX
*get, _MAXELEMTYPE, etyp, 0, NUM, MAX
*get, _MAXREALCONST, real, 0, NUM, MAX
/go
/wb,load,end               !  done creating loads
/com,--- Number of total nodes = %_numnode%
/com,--- Number of contact elements = 141
/com,--- Number of spring elements = 0
/com,--- Number of bearing elements = 0
/com,--- Number of solid elements = 1036
/com,--- Number of condensed parts = 0
/com,--- Number of total elements = %_numelem%
*get,_wallbsol,active,,time,wall
/com,****************************************************************************
/com,*************************    SOLUTION       ********************************
/com,****************************************************************************
/solu
antype,0                   ! static analysis
_thickRatio=  0     ! Ratio of thick parts in the model
eqsl,sparse,,,,,1
cntr,print,1               ! print out contact info and also make no initial contact an error
dmpoption,emat,no             ! Don't combine emat file for DANSYS
dmpoption,esav,no             ! Don't combine esav file for DANSYS
nldiag,cont,iter           ! print out contact info each equilibrium iteration
rescontrol,,none                 ! Do not keep any restart files
/com,****************************************************
/com,******************* SOLVE FOR LS 1 OF 1 ****************
esel,s,type,,2
nsle
sfe,all,1,pres,1,0.
sfe,all,2,pres,1,0.
sfe,all,3,pres,1,-1.32519580964951e-003
nsel,all
esel,all
/nopr
/gopr
nsub,1,1,1
time,1.
outres,erase
outres,all,none
outres,nsol,all,
outres,rsol,all
outres,eangl,all
outres,etmp,all
outres,veng,all
outres,strs,all,
outres,epel,all,
outres,eppl,all,
outres,cont,all,
! *********** WB SOLVE COMMAND ***********
! check interactive state
*get,ANSINTER_,active,,int
*if,ANSINTER_,ne,0,then
/eof
*endif
solve
/com *************** Write FE CONNECTORS ********* 
CEWRITE,file,ce,,INTE
/com,****************************************************
/com,*************** FINISHED SOLVE FOR LS 1 *************
*get,_wallasol,active,,time,wall
/nopr
*get,_numnode,node,0,count
*get,_numelem,elem,0,count
*get, _MAXELEMNUM, elem, 0, NUM, MAX
*get, _MAXNODENUM, node, 0, NUM, MAX,,,INTERNAL
*get, _MAXELEMTYPE, etyp, 0, NUM, MAX
*get, _MAXREALCONST, real, 0, NUM, MAX
/gopr
/post1
xmlo,ENCODING,ISO-8859-1
xmlo,parm
/xml,parm,xml
fini
/gopr
*get,_walldone,active,,time,wall
_preptime=(_wallbsol-_wallstrt)*3600
_solvtime=(_wallasol-_wallbsol)*3600
_posttime=(_walldone-_wallasol)*3600
_totaltim=(_walldone-_wallstrt)*3600
*get,_dlbratio,active,0,solu,dlbr
*get,_combtime,active,0,solu,comb
/com,--- Number of total nodes = %_numnode%
/com,--- Number of total elements = %_numelem%
/com,--- Element load balance ratio = %_dlbratio%
/com,--- Time to combine distributed files = %_combtime%
/wb,file,end               ! done with WB generated input
