/batch
/config,noeldb,1     ! force off writing results to database
*get,_wallstrt,active,,time,wall
! ANSYS input file written by Workbench version 2019 R3
! File used for geometry attach: C:\Users\Rajatsurya\OneDrive\Documents\antenna booming mechanism fea analysis\torsion spring 2.igs
/title,torsion spring analysis--Static Structural (A5)
*DIM,_wb_ProjectScratch_dir,string,248
_wb_ProjectScratch_dir(1) = 'C:\Users\Rajatsurya\OneDrive\Documents\antenna booming mechanism fea analysis\_ProjectScratch\Scr07D7\'
*DIM,_wb_SolverFiles_dir,string,248
_wb_SolverFiles_dir(1) = 'C:\Users\Rajatsurya\OneDrive\Documents\antenna booming mechanism fea analysis\torsion spring analysis_files\dp0\SYS\MECH\'
*DIM,_wb_userfiles_dir,string,248
_wb_userfiles_dir(1) = 'C:\Users\Rajatsurya\OneDrive\Documents\antenna booming mechanism fea analysis\torsion spring analysis_files\user_files\'
/com,--- Data in consistent NMM units. See Solving Units in the help system for more information.
/units,MPA
/nopr
/wb,file,start              !  signify a WB generated input file
/prep7
! Turn off shape checking because checks already performed inside WB mesher.
! See help system for more information.
SHPP,OFF,,NOWARN
/nolist
etcon,set             ! allow ANSYS to choose best KEYOP's for 180x elements
/com,*********** Nodes for the whole assembly ***********
nblock,3,,16277
(1i9,3e20.9e3)
        1     1.161825565E+01     3.802184414E+00     4.321082393E-02
        2     1.161825565E+01     3.802184414E+00    -1.495678918E+01
        3     1.161825565E+01     3.802184414E+00    -1.926957772E-01
        4     1.161825565E+01     3.802184414E+00    -4.363469152E-01
        5     1.161825565E+01     3.802184414E+00    -6.948497553E-01
        6     1.161825565E+01     3.802184414E+00    -9.638169198E-01
        7     1.161825565E+01     3.802184414E+00    -1.228747165E+00
        8     1.161825565E+01     3.802184414E+00    -1.479632317E+00
        9     1.161825565E+01     3.802184414E+00    -1.721230113E+00
       10     1.161825565E+01     3.802184414E+00    -1.968914133E+00
       11     1.161825565E+01     3.802184414E+00    -2.233517297E+00
       12     1.161825565E+01     3.802184414E+00    -2.509763558E+00
       13     1.161825565E+01     3.802184414E+00    -2.789440303E+00
       14     1.161825565E+01     3.802184414E+00    -3.069116198E+00
       15     1.161825565E+01     3.802184414E+00    -3.348789174E+00
       16     1.161825565E+01     3.802184414E+00    -3.628459179E+00
       17     1.161825565E+01     3.802184414E+00    -3.908126212E+00
       18     1.161825565E+01     3.802184414E+00    -4.187790274E+00
       19     1.161825565E+01     3.802184414E+00    -4.467451363E+00
       20     1.161825565E+01     3.802184414E+00    -4.747109480E+00
! ... 14779 like lines cut
/com,*********** Nodes for all Remote Points ***********
nblock,3
(1i9,3e20.9e3)
    14799    -2.576865006E-01    -7.670770447E+00     3.556557349E+00
-1
/wb,elem,start            !  set before creation of elements
/com,*********** Elements for Body 1 "torsion spring 2-FreeParts|PartBody" ***********
et,1,181
keyo,1,3,2
eblock,19,solid,,14918
(19i9)
        1        1        1        1        0        0        0        0        4        0        1    14722    14724    14692    14692
        1        1        1        1        0        0        0        0        4        0        2    14471    14470    14514    14514
        1        1        1        1        0        0        0        0        4        0        3    14463    14516    14548    14548
        1        1        1        1        0        0        0        0        4        0        4    14513    14494    14493    14493
        1        1        1        1        0        0        0        0        4        0        5    14497    14464    14752    14752
        1        1        1        1        0        0        0        0        4        0        6    14507    14445    14508    14508
        1        1        1        1        0        0        0        0        4        0        7    14475    14477    14439    14439
        1        1        1        1        0        0        0        0        4        0      457    13087    12910    12859    12859
        1        1        1        1        0        0        0        0        4        0      458    12874    12866    13054    13054
        1        1        1        1        0        0        0        0        4        0      459    12854    13086    12913    12913
        1        1        1        1        0        0        0        0        4        0      460    13064    12906    13062    13062
        1        1        1        1        0        0        0        0        4        0      461    12852    12834    12835    12835
        1        1        1        1        0        0        0        0        4        0      462    12944    12838    12839    12839
        1        1        1        1        0        0        0        0        4        0      463    12853    12928    13091    13091
        1        1        1        1        0        0        0        0        4        0      799      129     2604      202      202
        1        1        1        1        0        0        0        0        4        0      800      207      208    14174    14174
        1        1        1        1        0        0        0        0        4        0      801    14066    14366    14062    14062
        1        1        1        1        0        0        0        0        4        0      802    14092    14124    14070    14070
        1        1        1        1        0        0        0        0        4        0      803    14081    14117    14343    14343
        1        1        1        1        0        0        0        0        4        0      804    14097    14371    14181    14181
! ... 14899 like lines cut
!Material Id = {415ADB21-38D7-4436-98D0-F8C49ACD4B16}
/wb,elem,end               !  done creating elements
/com,*********** Send User Defined Coordinate System(s) ***********
csys,0
toffst,273.15,  ! Temperature offset from absolute zero
/com,*********** Set Reference Temperature ***********
tref,-271.1
/wb,mat,start              !  starting to send materials
/com,*********** Send Materials ***********
Temperature = 'TEMP' ! Temperature
MP,DENS,1,8.3e-09,	! tonne mm^-3
MP,ALPX,1,1.8e-05,	! C^-1
MP,C,1,385000000,	! mm^2 s^-2 C^-1
MP,KXX,1,401,	! tonne mm s^-3 C^-1
MPTEMP,,,,,,,,
MPTEMP,1,0
MPTEMP,2,20
MPTEMP,3,100
MPDATA,RSVX,1, ,1.548e-05,1.694e-05,2.277e-05,	! ohm mm
MPTEMP,,,,,,,,
MP,EX,1,110000,	! tonne s^-2 mm^-1
MP,NUXY,1,0.34,
MP,MURX,1,1,

/wb,mat,end                !  done sending materials
/com,*********** Send Sheet Properties ***********
sectype,1,shell
secdata,0.56
secoff,mid

!************************* Model Summary ********************
!torsion spring 2-FreeParts|PartBody,	Copper Alloy,	matid,	1
!************************* End Model Summary ********************
! get the diagonal of the bounding box. Needed later for other things
*get,_xmin,node,,mnloc,x
*get,_ymin,node,,mnloc,y
*get,_zmin,node,,mnloc,z
*get,_xmax,node,,mxloc,x
*get,_ymax,node,,mxloc,y
*get,_zmax,node,,mxloc,z
_ASMDIAG=(_xmax-_xmin)*(_xmax-_xmin)+(_ymax-_ymin)*(_ymax-_ymin)+(_zmax-_zmin)*(_zmax-_zmin)
_ASMDIAG=SQRT(_ASMDIAG)
/wb,contact,start          !  starting to send contact
/wb,contact,end            !  done creating contacts
/golist
/wb,load,start             !  starting to send loads
/com,*********** Fixed Supports ***********
CMBLOCK,_FIXEDSU,NODE,     1025
(8i10)
         1         2         3         4         5         6         7         8
         9        10        11        12        13        14        15        16
        17        18        19        20        21        22        23        24
        25        26        27        28        29        30        31        32
        33        34        35        36        37        38        39        40
        41        42        43        44        45        46        47        48
        49        50        51        52        53        54        55        56
        57        58        59        60        61        62        63        64
        65        66        67        68        69        70        71        72
        73        74        75        76        77        78        79        80
        81        82        83        84        85        86        87        88
        89        90        91        92        93        94        95        96
        97        98        99       100       101       102       103       104
       105       106       107       108       109       110       111       112
       113       114       115       116       117       118       119       120
       121       122       123       124       125       126       127       128
       129       130       131       132       133       134       135       136
       137       138       139       140       141       142       143       144
       145       146       147       148       149       150       151       152
       153       154       155       156       157       158       159       160
! ... 109 like lines cut
cmsel,s,_FIXEDSU
d,all,all
nsel,all
/com,*********** Create Remote Point "Internal Remote Point" ***********
! -------- Remote Point Used by "Moment" --------
*set,tid,3
*set,cid,2
et,cid,174
et,tid,170
keyo,tid,2,1               ! Don't fix the pilot node
keyo,tid,4,111111
keyo,cid,12,5              ! Bonded Contact 
keyo,cid,4,1               ! Deformable RBE3 style load
keyo,cid,2,2               ! MPC style contact
eblock,10,,,993
(15i9)
    14920        2        2        2        0     5190     5187     5191     5191
    14921        2        2        2        0     5197     5185     5466     5466
    14922        2        2        2        0     5529     5178     5177     5177
    14923        2        2        2        0     5508     5164     5525     5525
    14924        2        2        2        0     2082     2083     2231     2231
    14925        2        2        2        0     2082     2231     2080     2080
    14926        2        2        2        0     5474     5488     5395     5395
    14927        2        2        2        0     5174     5260     5259     5514
    14928        2        2        2        0     5298     5174     5514     5519
    14929        2        2        2        0     5235     5403     5402     5233
    14930        2        2        2        0     5235     5280     5404     5403
    14931        2        2        2        0     5235     5236     5188     5280
    14932        2        2        2        0     5173     5214     5305     5304
    14933        2        2        2        0     5186     5173     5304     5496
    14934        2        2        2        0     5173     5270     5497     5214
    14935        2        2        2        0     5229     5491     5162     5223
    14936        2        2        2        0     5162     5230     5224     5223
    14937        2        2        2        0     5400     5399     5488     5163
    14938        2        2        2        0     5399     5398     5397     5488
    14939        2        2        2        0     5162     5491     5382     5383
! ... 974 like lines cut
*set,_npilot,14799
_npilot30=_npilot
type,tid
mat ,cid
real,cid
tshape,pilo
en,15913,_npilot
tshape
/com,*********** Construct Moment Using Remote Attachment ***********
/gst,on,on
fini
*get,_numnode,node,0,count
*get,_numelem,elem,0,count
*get, _MAXELEMNUM, elem, 0, NUM, MAX
*get, _MAXNODENUM, node, 0, NUM, MAX
*get, _MAXELEMTYPE, etyp, 0, NUM, MAX
*get, _MAXREALCONST, real, 0, NUM, MAX
/go
/wb,load,end               !  done creating loads
/com,--- Number of total nodes = %_numnode%
/com,--- Number of contact elements = 993
/com,--- Number of spring elements = 0
/com,--- Number of bearing elements = 0
/com,--- Number of solid elements = 14918
/com,--- Number of condensed parts = 0
/com,--- Number of total elements = %_numelem%
*get,_wallbsol,active,,time,wall
/com,****************************************************************************
/com,*************************    SOLUTION       ********************************
/com,****************************************************************************
/solu
antype,0                   ! static analysis
_thickRatio=  0     ! Ratio of thick parts in the model
eqsl,sparse,,,,,1
cntr,print,1               ! print out contact info and also make no initial contact an error
dmpoption,emat,no             ! Don't combine emat file for DANSYS
dmpoption,esav,no             ! Don't combine esav file for DANSYS
nldiag,cont,iter           ! print out contact info each equilibrium iteration
rescontrol,,none                 ! Do not keep any restart files
/com,****************************************************
/com,******************* SOLVE FOR LS 1 OF 1 ****************
nsel,s,node,,14799
f,all,mx,131.
f,all,my,0.
f,all,mz,0.
nsel,all
/nopr
/gopr
nsub,1,1,1
time,1.
outres,erase
outres,all,none
outres,nsol,all,
outres,rsol,all
outres,eangl,all
outres,etmp,all
outres,veng,all
outres,strs,all,
outres,epel,all,
outres,eppl,all,
outres,cont,all,
! *********** WB SOLVE COMMAND ***********
! check interactive state
*get,ANSINTER_,active,,int
*if,ANSINTER_,ne,0,then
/eof
*endif
solve
/com *************** Write FE CONNECTORS ********* 
CEWRITE,file,ce,,INTE
/com,****************************************************
/com,*************** FINISHED SOLVE FOR LS 1 *************
*get,_wallasol,active,,time,wall
/nopr
*get,_numnode,node,0,count
*get,_numelem,elem,0,count
*get, _MAXELEMNUM, elem, 0, NUM, MAX
*get, _MAXNODENUM, node, 0, NUM, MAX,,,INTERNAL
*get, _MAXELEMTYPE, etyp, 0, NUM, MAX
*get, _MAXREALCONST, real, 0, NUM, MAX
/gopr
/post1
xmlo,ENCODING,ISO-8859-1
xmlo,parm
/xml,parm,xml
fini
/gopr
*get,_walldone,active,,time,wall
_preptime=(_wallbsol-_wallstrt)*3600
_solvtime=(_wallasol-_wallbsol)*3600
_posttime=(_walldone-_wallasol)*3600
_totaltim=(_walldone-_wallstrt)*3600
*get,_dlbratio,active,0,solu,dlbr
*get,_combtime,active,0,solu,comb
/com,--- Number of total nodes = %_numnode%
/com,--- Number of total elements = %_numelem%
/com,--- Element load balance ratio = %_dlbratio%
/com,--- Time to combine distributed files = %_combtime%
/wb,file,end               ! done with WB generated input
