
 ANSYS Mechanical Enterprise                       


 *------------------------------------------------------------------*
 |                                                                  |
 |   W E L C O M E   T O   T H E   A N S Y S (R)  P R O G R A M     |
 |                                                                  |
 *------------------------------------------------------------------*




 ***************************************************************
 *            ANSYS 2019 R3          LEGAL NOTICES             *
 ***************************************************************
 *                                                             *
 * Copyright 1971-2019 ANSYS, Inc.  All rights reserved.       *
 * Unauthorized use, distribution or duplication is            *
 * prohibited.                                                 *
 *                                                             *
 * Ansys is a registered trademark of ANSYS, Inc. or its       *
 * subsidiaries in the United States or other countries.       *
 * See the ANSYS, Inc. online documentation or the ANSYS, Inc. *
 * documentation CD or online help for the complete Legal      *
 * Notice.                                                     *
 *                                                             *
 ***************************************************************
 *                                                             *
 * THIS ANSYS SOFTWARE PRODUCT AND PROGRAM DOCUMENTATION       *
 * INCLUDE TRADE SECRETS AND CONFIDENTIAL AND PROPRIETARY      *
 * PRODUCTS OF ANSYS, INC., ITS SUBSIDIARIES, OR LICENSORS.    *
 * The software products and documentation are furnished by    *
 * ANSYS, Inc. or its subsidiaries under a software license    *
 * agreement that contains provisions concerning               *
 * non-disclosure, copying, length and nature of use,          *
 * compliance with exporting laws, warranties, disclaimers,    *
 * limitations of liability, and remedies, and other           *
 * provisions.  The software products and documentation may be *
 * used, disclosed, transferred, or copied only in accordance  *
 * with the terms and conditions of that software license      *
 * agreement.                                                  *
 *                                                             *
 * ANSYS, Inc. is a UL registered                              *
 * ISO 9001:2015 company.                                      *
 *                                                             *
 ***************************************************************
 *                                                             *
 * This product is subject to U.S. laws governing export and   *
 * re-export.                                                  *
 *                                                             *
 * For U.S. Government users, except as specifically granted   *
 * by the ANSYS, Inc. software license agreement, the use,     *
 * duplication, or disclosure by the United States Government  *
 * is subject to restrictions stated in the ANSYS, Inc.        *
 * software license agreement and FAR 12.212 (for non-DOD      *
 * licenses).                                                  *
 *                                                             *
 ***************************************************************

 2019 R3 
     
 Point Releases and Patches installed:   
     
 ANSYS, Inc. Products 2019 R3
 SpaceClaim 2019 R3  
 AIM 2019 R3 
 Live (includes SpaceClaim) 2019 R3  
 Autodyn 2019 R3 
 LS-DYNA 2019 R3 
 CFX (includes CFD-Post) 2019 R3 
 Chemkin 2019 R3 
 EnSight 2019 R3 
 FENSAP-ICE 2019 R3  
 Fluent (includes CFD-Post) 2019 R3  
 Forte 2019 R3   
 Polyflow (includes CFD-Post) 2019 R3
 TurboGrid 2019 R3   
 ICEM CFD 2019 R3
 Aqwa 2019 R3
 Mechanical Products 2019 R3 
 Additive 2019 R3
 Icepak (includes CFD-Post) 2019 R3  
 ACIS Geometry Interface 2019 R3 
 AutoCAD Geometry Interface 2019 R3  
 Catia, Version 4 Geometry Interface 2019 R3 
 Catia, Version 6 Geometry Interface 2019 R3 
 Creo Elements/Direct Modeling Geometry Interface 2019 R3
 Creo Parametric Geometry Interface 2019 R3  
 Inventor Geometry Interface 2019 R3 
 JTOpen Geometry Interface 2019 R3   
 NX Geometry Interface 2019 R3   
 Parasolid Geometry Interface  2019 R3   
 Solid Edge Geometry Interface 2019 R3   
 SOLIDWORKS Geometry Interface 2019 R3   
 ANSYS, Inc. License Manager 2019 R3 


          *****  ANSYS COMMAND LINE ARGUMENTS  *****
  BATCH MODE REQUESTED (-b)    = NOLIST
  INPUT FILE COPY MODE (-c)    = COPY
  DISTRIBUTED MEMORY PARALLEL REQUESTED
       2 PARALLEL PROCESSES REQUESTED WITH SINGLE THREAD PER PROCESS
    TOTAL OF     2 CORES REQUESTED
  INPUT FILE NAME              = C:\Users\Rajatsurya\OneDrive\Documents\antenna booming mechanism fea analysis\_ProjectScratch\Scr57D7\dummy.dat
  OUTPUT FILE NAME             = C:\Users\Rajatsurya\OneDrive\Documents\antenna booming mechanism fea analysis\_ProjectScratch\Scr57D7\solve.out
  START-UP FILE MODE           = NOREAD
  STOP FILE MODE               = NOREAD

 RELEASE= 2019 R3              BUILD= 19.5      UP20190805   VERSION=WINDOWS x64 
 CURRENT JOBNAME=file0  08:47:06  MAY 02, 2022 CP=      0.359


 PARAMETER _DS_PROGRESS =     999.0000000    

 /INPUT FILE= ds.dat  LINE=       0



 *** NOTE ***                            CP =       0.516   TIME= 08:47:06
 The /CONFIG,NOELDB command is not valid in a Distributed ANSYS          
 solution.  Command is ignored.                                          

 *GET  _WALLSTRT  FROM  ACTI  ITEM=TIME WALL  VALUE=  8.78500000    

 TITLE= 
 female lock fea analysis--Static Structural (A5)                              


 SET PARAMETER DIMENSIONS ON  _WB_PROJECTSCRATCH_DIR
  TYPE=STRI  DIMENSIONS=      248        1        1

 PARAMETER _WB_PROJECTSCRATCH_DIR(1) = C:\Users\Rajatsurya\OneDrive\Documents\antenna booming mechanism fea analysis\_ProjectScratch\Scr57D7\

 SET PARAMETER DIMENSIONS ON  _WB_SOLVERFILES_DIR
  TYPE=STRI  DIMENSIONS=      248        1        1

 PARAMETER _WB_SOLVERFILES_DIR(1) = C:\Users\Rajatsurya\OneDrive\Documents\antenna booming mechanism fea analysis\female lock fea analysis_files\dp0\SYS\MECH\

 SET PARAMETER DIMENSIONS ON  _WB_USERFILES_DIR
  TYPE=STRI  DIMENSIONS=      248        1        1

 PARAMETER _WB_USERFILES_DIR(1) = C:\Users\Rajatsurya\OneDrive\Documents\antenna booming mechanism fea analysis\female lock fea analysis_files\user_files\
 --- Data in consistent NMM units. See Solving Units in the help system for more

 MPA UNITS SPECIFIED FOR INTERNAL    
  LENGTH      = MILLIMETERS (mm)
  MASS        = TONNE (Mg)
  TIME        = SECONDS (sec)
  TEMPERATURE = CELSIUS (C)
  TOFFSET     = 273.0
  FORCE       = NEWTON (N)
  HEAT        = MILLIJOULES (mJ)

 INPUT  UNITS ARE ALSO SET TO MPA 

 *** ANSYS - ENGINEERING ANALYSIS SYSTEM  RELEASE 2019 R3          19.5     ***
 DISTRIBUTED ANSYS Mechanical Enterprise                       

 00000000  VERSION=WINDOWS x64   08:47:06  MAY 02, 2022 CP=      0.516

 female lock fea analysis--Static Structural (A5)                              



          ***** ANSYS ANALYSIS DEFINITION (PREP7) *****
 *********** Nodes for the whole assembly ***********
 *********** Elements for Body 1 "assembled female lock for fea analysis-FreePar
 *********** Elements for Body 2 "assembled female lock for fea analysis-FreePar
 *********** Elements for Body 3 "assembled female lock for fea analysis-FreePar
 *********** Elements for Body 4 "assembled female lock for fea analysis-FreePar
 *********** Elements for Body 5 "assembled female lock for fea analysis-FreePar
 *********** Send User Defined Coordinate System(s) ***********
 *********** Set Reference Temperature ***********
 *********** Send Materials ***********
 *********** Create Contact "Contact Region" ***********
             Real Constant Set For Above Contact Is 7 & 6
 *********** Create Contact "Contact Region 2" ***********
             Real Constant Set For Above Contact Is 9 & 8
 *********** Create Contact "Contact Region 3" ***********
             Real Constant Set For Above Contact Is 11 & 10
 *********** Create Contact "Contact Region 4" ***********
             Real Constant Set For Above Contact Is 13 & 12
 *********** Fixed Supports ***********
 *********** Define Force Using Surface Effect Elements ***********
 *********** Define Force Using Surface Effect Elements ***********
 *********** Define Force Using Surface Effect Elements ***********


 ***** ROUTINE COMPLETED *****  CP =         0.609


 --- Number of total nodes = 5115
 --- Number of contact elements = 254
 --- Number of spring elements = 0
 --- Number of bearing elements = 0
 --- Number of solid elements = 2114
 --- Number of condensed parts = 0
 --- Number of total elements = 2368

 *GET  _WALLBSOL  FROM  ACTI  ITEM=TIME WALL  VALUE=  8.78500000    
 ****************************************************************************
 *************************    SOLUTION       ********************************
 ****************************************************************************

 *****  ANSYS SOLUTION ROUTINE  *****


 PERFORM A STATIC ANALYSIS
  THIS WILL BE A NEW ANALYSIS

 PARAMETER _THICKRATIO =     0.000000000    

 USE SPARSE MATRIX DIRECT SOLVER

 CONTACT INFORMATION PRINTOUT LEVEL       1

 DO NOT COMBINE ELEMENT MATRIX FILES (.emat) AFTER DISTRIBUTED PARALLEL SOLUTION

 DO NOT COMBINE ELEMENT SAVE DATA FILES (.esav) AFTER DISTRIBUTED PARALLEL SOLUTION

 NLDIAG: Nonlinear diagnostics CONT option is set to ON. 
         Writing frequency : each ITERATION.

 DO NOT SAVE ANY RESTART FILES AT ALL
 ****************************************************
 ******************* SOLVE FOR LS 1 OF 1 ****************

 SELECT       FOR ITEM=TYPE COMPONENT=    
  IN RANGE        14 TO         14 STEP          1

         62  ELEMENTS (OF       2368  DEFINED) SELECTED BY  ESEL  COMMAND.

 SELECT      ALL NODES HAVING ANY ELEMENT IN ELEMENT SET.

        169 NODES (OF       5115  DEFINED) SELECTED FROM
       62 SELECTED ELEMENTS BY NSLE COMMAND.

 SPECIFIED SURFACE LOAD PRES FOR ALL SELECTED ELEMENTS  LKEY =  1   KVAL = 1
     VALUES =     0.0000         0.0000         0.0000         0.0000    

 SPECIFIED SURFACE LOAD PRES FOR ALL SELECTED ELEMENTS  LKEY =  2   KVAL = 1
     VALUES =     0.0000         0.0000         0.0000         0.0000    

 SPECIFIED SURFACE LOAD PRES FOR ALL SELECTED ELEMENTS  LKEY =  3   KVAL = 1
     VALUES =    -4.1539        -4.1539        -4.1539        -4.1539    

 SELECT       FOR ITEM=TYPE COMPONENT=    
  IN RANGE        15 TO         15 STEP          1

          4  ELEMENTS (OF       2368  DEFINED) SELECTED BY  ESEL  COMMAND.

 SELECT      ALL NODES HAVING ANY ELEMENT IN ELEMENT SET.

         15 NODES (OF       5115  DEFINED) SELECTED FROM
        4 SELECTED ELEMENTS BY NSLE COMMAND.

 SPECIFIED SURFACE LOAD PRES FOR ALL SELECTED ELEMENTS  LKEY =  1   KVAL = 1
     VALUES =     0.0000         0.0000         0.0000         0.0000    

 SPECIFIED SURFACE LOAD PRES FOR ALL SELECTED ELEMENTS  LKEY =  2   KVAL = 1
     VALUES =     0.0000         0.0000         0.0000         0.0000    

 SPECIFIED SURFACE LOAD PRES FOR ALL SELECTED ELEMENTS  LKEY =  3   KVAL = 1
     VALUES =    -415.90        -415.90        -415.90        -415.90    

 SELECT       FOR ITEM=TYPE COMPONENT=    
  IN RANGE        16 TO         16 STEP          1

          4  ELEMENTS (OF       2368  DEFINED) SELECTED BY  ESEL  COMMAND.

 SELECT      ALL NODES HAVING ANY ELEMENT IN ELEMENT SET.

         15 NODES (OF       5115  DEFINED) SELECTED FROM
        4 SELECTED ELEMENTS BY NSLE COMMAND.

 SPECIFIED SURFACE LOAD PRES FOR ALL SELECTED ELEMENTS  LKEY =  1   KVAL = 1
     VALUES =     0.0000         0.0000         0.0000         0.0000    

 SPECIFIED SURFACE LOAD PRES FOR ALL SELECTED ELEMENTS  LKEY =  2   KVAL = 1
     VALUES =     0.0000         0.0000         0.0000         0.0000    

 SPECIFIED SURFACE LOAD PRES FOR ALL SELECTED ELEMENTS  LKEY =  3   KVAL = 1
     VALUES =    -415.90        -415.90        -415.90        -415.90    

 ALL SELECT   FOR ITEM=NODE COMPONENT=    
  IN RANGE         1 TO       5115 STEP          1

       5115  NODES (OF       5115  DEFINED) SELECTED BY NSEL  COMMAND.

 ALL SELECT   FOR ITEM=ELEM COMPONENT=    
  IN RANGE         1 TO       3752 STEP          1

       2368  ELEMENTS (OF       2368  DEFINED) SELECTED BY  ESEL  COMMAND.

 PRINTOUT RESUMED BY /GOP

 USE       1 SUBSTEPS INITIALLY THIS LOAD STEP FOR ALL  DEGREES OF FREEDOM
 FOR AUTOMATIC TIME STEPPING:
   USE      1 SUBSTEPS AS A MAXIMUM
   USE      1 SUBSTEPS AS A MINIMUM

 TIME=  1.0000    

 ERASE THE CURRENT DATABASE OUTPUT CONTROL TABLE.


 WRITE ALL  ITEMS TO THE DATABASE WITH A FREQUENCY OF NONE
   FOR ALL APPLICABLE ENTITIES

 WRITE NSOL ITEMS TO THE DATABASE WITH A FREQUENCY OF ALL 
   FOR ALL APPLICABLE ENTITIES

 WRITE RSOL ITEMS TO THE DATABASE WITH A FREQUENCY OF ALL 
   FOR ALL APPLICABLE ENTITIES

 WRITE EANG ITEMS TO THE DATABASE WITH A FREQUENCY OF ALL 
   FOR ALL APPLICABLE ENTITIES

 WRITE ETMP ITEMS TO THE DATABASE WITH A FREQUENCY OF ALL 
   FOR ALL APPLICABLE ENTITIES

 WRITE VENG ITEMS TO THE DATABASE WITH A FREQUENCY OF ALL 
   FOR ALL APPLICABLE ENTITIES

 WRITE STRS ITEMS TO THE DATABASE WITH A FREQUENCY OF ALL 
   FOR ALL APPLICABLE ENTITIES

 WRITE EPEL ITEMS TO THE DATABASE WITH A FREQUENCY OF ALL 
   FOR ALL APPLICABLE ENTITIES

 WRITE EPPL ITEMS TO THE DATABASE WITH A FREQUENCY OF ALL 
   FOR ALL APPLICABLE ENTITIES

 WRITE CONT ITEMS TO THE DATABASE WITH A FREQUENCY OF ALL 
   FOR ALL APPLICABLE ENTITIES

 *GET  ANSINTER_  FROM  ACTI  ITEM=INT        VALUE=  0.00000000    

 *IF  ANSINTER_                         ( =   0.00000     )  NE  
      0                                 ( =   0.00000     )  THEN    

 *ENDIF

 *** NOTE ***                            CP =       0.672   TIME= 08:47:06
 The automatic domain decomposition logic has selected the MESH domain   
 decomposition method with 2 processes per solution.                     

 *****  ANSYS SOLVE    COMMAND  *****

 *** WARNING ***                         CP =       0.672   TIME= 08:47:06
 Element shape checking is currently inactive.  Issue SHPP,ON or         
 SHPP,WARN to reactivate, if desired.                                    

 *** NOTE ***                            CP =       0.688   TIME= 08:47:06
 The model data was checked and warning messages were found.             
  Please review output or errors file (                                  
 C:\Users\Rajatsurya\OneDrive\Documents\antenna booming mechanism fea    
 analysis\_ProjectScratch\Scr57D7\file0.err ) for these warning          
 messages.                                                               

 *** SELECTION OF ELEMENT TECHNOLOGIES FOR APPLICABLE ELEMENTS ***
      --- GIVE SUGGESTIONS AND RESET THE KEY OPTIONS ---

 ELEMENT TYPE    1 IS SOLID186. KEYOPT(2)=0 IS SUGGESTED AND HAS BEEN RESET.
  KEYOPT(1-12)=    0    0    0    0    0    0    0    0    0    0    0    0

 ELEMENT TYPE    2 IS SOLID186. KEYOPT(2)=0 IS SUGGESTED AND HAS BEEN RESET.
  KEYOPT(1-12)=    0    0    0    0    0    0    0    0    0    0    0    0

 ELEMENT TYPE    3 IS SOLID186. KEYOPT(2)=0 IS SUGGESTED AND HAS BEEN RESET.
  KEYOPT(1-12)=    0    0    0    0    0    0    0    0    0    0    0    0

 ELEMENT TYPE    4 IS SOLID187. IT IS NOT ASSOCIATED WITH FULLY INCOMPRESSIBLE
 HYPERELASTIC MATERIALS. NO SUGGESTION IS AVAILABLE AND NO RESETTING IS NEEDED.

 ELEMENT TYPE    5 IS SOLID186. KEYOPT(2)=0 IS SUGGESTED AND HAS BEEN RESET.
  KEYOPT(1-12)=    0    0    0    0    0    0    0    0    0    0    0    0



 *** ANSYS - ENGINEERING ANALYSIS SYSTEM  RELEASE 2019 R3          19.5     ***
 DISTRIBUTED ANSYS Mechanical Enterprise                       

 00000000  VERSION=WINDOWS x64   08:47:06  MAY 02, 2022 CP=      0.688

 female lock fea analysis--Static Structural (A5)                              



                       S O L U T I O N   O P T I O N S

   PROBLEM DIMENSIONALITY. . . . . . . . . . . . .3-D                  
   DEGREES OF FREEDOM. . . . . . UX   UY   UZ  
   ANALYSIS TYPE . . . . . . . . . . . . . . . . .STATIC (STEADY-STATE)
   OFFSET TEMPERATURE FROM ABSOLUTE ZERO . . . . .  273.15    
   EQUATION SOLVER OPTION. . . . . . . . . . . . .SPARSE             
   GLOBALLY ASSEMBLED MATRIX . . . . . . . . . . .SYMMETRIC  

 *** WARNING ***                         CP =       0.719   TIME= 08:47:06
 Material number 14 (used by element 3683) should normally have at least 
 one MP or one TB type command associated with it.  Output of energy by  
 material may not be available.                                          

 *** NOTE ***                            CP =       0.719   TIME= 08:47:06
 The step data was checked and warning messages were found.              
  Please review output or errors file (                                  
 C:\Users\Rajatsurya\OneDrive\Documents\antenna booming mechanism fea    
 analysis\_ProjectScratch\Scr57D7\file0.err ) for these warning          
 messages.                                                               

 *** NOTE ***                            CP =       0.719   TIME= 08:47:06
 The conditions for direct assembly have been met.  No .emat or .erot    
 files will be produced.                                                 

 *** NOTE ***                            CP =       0.781   TIME= 08:47:06
 Symmetric Deformable- deformable contact pair identified by real        
 constant set 6 and contact element type 6 has been set up.  The         
 companion pair has real constant set ID 7.  Both pairs should have the  
 same behavior.                                                          
 ANSYS will keep the current pair and deactivate its companion pair,     
 resulting in asymmetric contact.                                        
 Linear contact is defined
 Contact algorithm: Augmented Lagrange method
 Contact detection at: Gauss integration point
 Contact stiffness factor FKN                  10.000    
 The resulting initial contact stiffness      0.36289E+08
 Default penetration tolerance factor FTOLN   0.10000    
 The resulting penetration tolerance          0.66667E-02
 Default opening contact stiffness OPSF will be used.
 Default tangent stiffness factor FKT          1.0000    
 Use constant contact stiffness
 Default Max. friction stress TAUMAX          0.10000E+21
 Average contact surface length               0.53400E-01
 Average contact pair depth                   0.66667E-01
 Default pinball region factor PINB           0.25000    
 The resulting pinball region                 0.16667E-01
 Initial penetration/gap is excluded.
 Bonded contact (always) is defined.

 *** NOTE ***                            CP =       0.781   TIME= 08:47:06
 Max.  Initial penetration 0 was detected between contact element 3515   
 and target element 3538.                                                
 ****************************************
  

 *** NOTE ***                            CP =       0.781   TIME= 08:47:06
 Symmetric Deformable- deformable contact pair identified by real        
 constant set 7 and contact element type 6 has been set up.  The         
 companion pair has real constant set ID 6.  Both pairs should have the  
 same behavior.                                                          
 ANSYS will deactivate the current pair and keep its companion pair,     
 resulting in asymmetric contact.                                        
 Linear contact is defined
 Contact algorithm: Augmented Lagrange method
 Contact detection at: Gauss integration point
 Contact stiffness factor FKN                  10.000    
 The resulting initial contact stiffness      0.36289E+08
 Default penetration tolerance factor FTOLN   0.10000    
 The resulting penetration tolerance          0.40233E-01
 Default opening contact stiffness OPSF will be used.
 Default tangent stiffness factor FKT          1.0000    
 Use constant contact stiffness
 Default Max. friction stress TAUMAX          0.10000E+21
 Average contact surface length               0.77031    
 Average contact pair depth                   0.40233    
 Default pinball region factor PINB           0.25000    
 The resulting pinball region                 0.10058    
 Initial penetration/gap is excluded.
 Bonded contact (always) is defined.

 *** NOTE ***                            CP =       0.781   TIME= 08:47:06
 Max.  Initial penetration 0 was detected between contact element 3531   
 and target element 3510.                                                
 ****************************************
  

 *** NOTE ***                            CP =       0.781   TIME= 08:47:06
 Symmetric Deformable- deformable contact pair identified by real        
 constant set 8 and contact element type 8 has been set up.  The         
 companion pair has real constant set ID 9.  Both pairs should have the  
 same behavior.                                                          
 ANSYS will keep the current pair and deactivate its companion pair,     
 resulting in asymmetric contact.                                        
 Linear contact is defined
 Contact algorithm: Augmented Lagrange method
 Contact detection at: Gauss integration point
 Contact stiffness factor FKN                  10.000    
 The resulting initial contact stiffness      0.32185E+08
 Default penetration tolerance factor FTOLN   0.10000    
 The resulting penetration tolerance          0.66667E-02
 Default opening contact stiffness OPSF will be used.
 Default tangent stiffness factor FKT          1.0000    
 Use constant contact stiffness
 Default Max. friction stress TAUMAX          0.10000E+21
 Average contact surface length               0.59621E-01
 Average contact pair depth                   0.66667E-01
 Default pinball region factor PINB           0.25000    
 The resulting pinball region                 0.16667E-01
 Initial penetration/gap is excluded.
 Bonded contact (always) is defined.

 *** NOTE ***                            CP =       0.781   TIME= 08:47:06
 Max.  Initial penetration 0 was detected between contact element 3561   
 and target element 3585.                                                
 ****************************************
  

 *** NOTE ***                            CP =       0.781   TIME= 08:47:06
 Symmetric Deformable- deformable contact pair identified by real        
 constant set 9 and contact element type 8 has been set up.  The         
 companion pair has real constant set ID 8.  Both pairs should have the  
 same behavior.                                                          
 ANSYS will deactivate the current pair and keep its companion pair,     
 resulting in asymmetric contact.                                        
 Linear contact is defined
 Contact algorithm: Augmented Lagrange method
 Contact detection at: Gauss integration point
 Contact stiffness factor FKN                  10.000    
 The resulting initial contact stiffness      0.32185E+08
 Default penetration tolerance factor FTOLN   0.10000    
 The resulting penetration tolerance          0.45363E-01
 Default opening contact stiffness OPSF will be used.
 Default tangent stiffness factor FKT          1.0000    
 Use constant contact stiffness
 Default Max. friction stress TAUMAX          0.10000E+21
 Average contact surface length               0.78014    
 Average contact pair depth                   0.45363    
 Default pinball region factor PINB           0.25000    
 The resulting pinball region                 0.11341    
 Initial penetration/gap is excluded.
 Bonded contact (always) is defined.

 *** NOTE ***                            CP =       0.781   TIME= 08:47:06
 Max.  Initial penetration 0 was detected between contact element 3580   
 and target element 3547.                                                
 ****************************************
  

 *** NOTE ***                            CP =       0.781   TIME= 08:47:06
 Symmetric Deformable- deformable contact pair identified by real        
 constant set 10 and contact element type 10 has been set up.  The       
 companion pair has real constant set ID 11.  Both pairs should have     
 the same behavior.                                                      
 ANSYS will keep the current pair and deactivate its companion pair,     
 resulting in asymmetric contact.                                        
 Linear contact is defined
 Contact algorithm: Augmented Lagrange method
 Contact detection at: Gauss integration point
 Contact stiffness factor FKN                  10.000    
 The resulting initial contact stiffness      0.35420E+08
 Default penetration tolerance factor FTOLN   0.10000    
 The resulting penetration tolerance          0.66667E-02
 Default opening contact stiffness OPSF will be used.
 Default tangent stiffness factor FKT          1.0000    
 Use constant contact stiffness
 Default Max. friction stress TAUMAX          0.10000E+21
 Average contact surface length               0.53400E-01
 Average contact pair depth                   0.66667E-01
 Default pinball region factor PINB           0.25000    
 The resulting pinball region                 0.16667E-01
 Initial penetration/gap is excluded.
 Bonded contact (always) is defined.

 *** NOTE ***                            CP =       0.781   TIME= 08:47:06
 Max.  Initial penetration 0 was detected between contact element 3607   
 and target element 3633.                                                
 ****************************************
  

 *** NOTE ***                            CP =       0.781   TIME= 08:47:06
 Symmetric Deformable- deformable contact pair identified by real        
 constant set 11 and contact element type 10 has been set up.  The       
 companion pair has real constant set ID 10.  Both pairs should have     
 the same behavior.                                                      
 ANSYS will deactivate the current pair and keep its companion pair,     
 resulting in asymmetric contact.                                        
 Linear contact is defined
 Contact algorithm: Augmented Lagrange method
 Contact detection at: Gauss integration point
 Contact stiffness factor FKN                  10.000    
 The resulting initial contact stiffness      0.35420E+08
 Default penetration tolerance factor FTOLN   0.10000    
 The resulting penetration tolerance          0.41220E-01
 Default opening contact stiffness OPSF will be used.
 Default tangent stiffness factor FKT          1.0000    
 Use constant contact stiffness
 Default Max. friction stress TAUMAX          0.10000E+21
 Average contact surface length               0.77264    
 Average contact pair depth                   0.41220    
 Default pinball region factor PINB           0.25000    
 The resulting pinball region                 0.10305    
 Initial penetration/gap is excluded.
 Bonded contact (always) is defined.

 *** NOTE ***                            CP =       0.781   TIME= 08:47:06
 Max.  Initial penetration 0 was detected between contact element 3626   
 and target element 3602.                                                
 ****************************************
  

 *** NOTE ***                            CP =       0.781   TIME= 08:47:06
 Symmetric Deformable- deformable contact pair identified by real        
 constant set 12 and contact element type 12 has been set up.  The       
 companion pair has real constant set ID 13.  Both pairs should have     
 the same behavior.                                                      
 ANSYS will deactivate the current pair and keep its companion pair,     
 resulting in asymmetric contact.                                        
 Linear contact is defined
 Contact algorithm: Augmented Lagrange method
 Contact detection at: Gauss integration point
 Contact stiffness factor FKN                  10.000    
 The resulting initial contact stiffness      0.29016E+08
 Default penetration tolerance factor FTOLN   0.10000    
 The resulting penetration tolerance          0.50318E-01
 Default opening contact stiffness OPSF will be used.
 Default tangent stiffness factor FKT          1.0000    
 Use constant contact stiffness
 Default Max. friction stress TAUMAX          0.10000E+21
 Average contact surface length               0.77021    
 Average contact pair depth                   0.50318    
 Default pinball region factor PINB           0.25000    
 The resulting pinball region                 0.12579    
 Initial penetration/gap is excluded.
 Bonded contact (always) is defined.

 *** NOTE ***                            CP =       0.781   TIME= 08:47:06
 Max.  Initial penetration 0 was detected between contact element 3644   
 and target element 3669.                                                
 ****************************************
  

 *** NOTE ***                            CP =       0.781   TIME= 08:47:06
 Symmetric Deformable- deformable contact pair identified by real        
 constant set 13 and contact element type 12 has been set up.  The       
 companion pair has real constant set ID 12.  Both pairs should have     
 the same behavior.                                                      
 ANSYS will keep the current pair and deactivate its companion pair,     
 resulting in asymmetric contact.                                        
 Linear contact is defined
 Contact algorithm: Augmented Lagrange method
 Contact detection at: Gauss integration point
 Contact stiffness factor FKN                  10.000    
 The resulting initial contact stiffness      0.29016E+08
 Default penetration tolerance factor FTOLN   0.10000    
 The resulting penetration tolerance          0.66667E-02
 Default opening contact stiffness OPSF will be used.
 Default tangent stiffness factor FKT          1.0000    
 Use constant contact stiffness
 Default Max. friction stress TAUMAX          0.10000E+21
 Average contact surface length               0.59621E-01
 Average contact pair depth                   0.66667E-01
 Default pinball region factor PINB           0.25000    
 The resulting pinball region                 0.16667E-01
 Initial penetration/gap is excluded.
 Bonded contact (always) is defined.

 *** NOTE ***                            CP =       0.781   TIME= 08:47:06
 Max.  Initial penetration 0 was detected between contact element 3651   
 and target element 3640.                                                
 ****************************************
  
  
  

  
  
     D I S T R I B U T E D   D O M A I N   D E C O M P O S E R
  
  ...Number of elements: 2368
  ...Number of nodes:    5115
  ...Decompose to 2 CPU domains
  ...Element load balance ratio =     1.028


                      L O A D   S T E P   O P T I O N S

   LOAD STEP NUMBER. . . . . . . . . . . . . . . .     1
   TIME AT END OF THE LOAD STEP. . . . . . . . . .  1.0000    
   NUMBER OF SUBSTEPS. . . . . . . . . . . . . . .     1
   STEP CHANGE BOUNDARY CONDITIONS . . . . . . . .    NO
   PRINT OUTPUT CONTROLS . . . . . . . . . . . . .NO PRINTOUT
   DATABASE OUTPUT CONTROLS
      ITEM     FREQUENCY   COMPONENT
       ALL       NONE               
      NSOL        ALL               
      RSOL        ALL               
      EANG        ALL               
      ETMP        ALL               
      VENG        ALL               
      STRS        ALL               
      EPEL        ALL               
      EPPL        ALL               
      CONT        ALL               


 SOLUTION MONITORING INFO IS WRITTEN TO FILE= file.mntr                                                                                                                                                                                                                                                           

 *** NOTE ***                            CP =       1.000   TIME= 08:47:07
 Symmetric Deformable- deformable contact pair identified by real        
 constant set 10 and contact element type 10 has been set up.  The       
 companion pair has real constant set ID 11.  Both pairs should have     
 the same behavior.                                                      
 ANSYS will keep the current pair and deactivate its companion pair,     
 resulting in asymmetric contact.                                        
 Linear contact is defined
 Contact algorithm: Augmented Lagrange method
 Contact detection at: Gauss integration point
 Contact stiffness factor FKN                  10.000    
 The resulting initial contact stiffness      0.35420E+08
 Default penetration tolerance factor FTOLN   0.10000    
 The resulting penetration tolerance          0.66667E-02
 Default opening contact stiffness OPSF will be used.
 Default tangent stiffness factor FKT          1.0000    
 Use constant contact stiffness
 Default Max. friction stress TAUMAX          0.10000E+21
 Average contact surface length               0.53400E-01
 Average contact pair depth                   0.66667E-01
 Default pinball region factor PINB           0.25000    
 The resulting pinball region                 0.16667E-01
 Initial penetration/gap is excluded.
 Bonded contact (always) is defined.

 *** NOTE ***                            CP =       1.000   TIME= 08:47:07
 Max.  Initial penetration 0 was detected between contact element 3607   
 and target element 3633.                                                
 ****************************************
  

 *** NOTE ***                            CP =       1.000   TIME= 08:47:07
 Symmetric Deformable- deformable contact pair identified by real        
 constant set 11 and contact element type 10 has been set up.  The       
 companion pair has real constant set ID 10.  Both pairs should have     
 the same behavior.                                                      
 ANSYS will deactivate the current pair and keep its companion pair,     
 resulting in asymmetric contact.                                        
 Linear contact is defined
 Contact algorithm: Augmented Lagrange method
 Contact detection at: Gauss integration point
 Contact stiffness factor FKN                  10.000    
 The resulting initial contact stiffness      0.35420E+08
 Default penetration tolerance factor FTOLN   0.10000    
 The resulting penetration tolerance          0.41220E-01
 Default opening contact stiffness OPSF will be used.
 Default tangent stiffness factor FKT          1.0000    
 Use constant contact stiffness
 Default Max. friction stress TAUMAX          0.10000E+21
 Average contact surface length               0.77264    
 Average contact pair depth                   0.41220    
 Default pinball region factor PINB           0.25000    
 The resulting pinball region                 0.10305    
 Initial penetration/gap is excluded.
 Bonded contact (always) is defined.

 *** NOTE ***                            CP =       1.000   TIME= 08:47:07
 Max.  Initial penetration 0 was detected between contact element 3626   
 and target element 3602.                                                
 ****************************************
  

  
 *************************************************
  SUMMARY FOR CONTACT PAIR IDENTIFIED BY REAL CONSTANT SET          10
 Max.  Penetration of 0 has been detected between contact element 3607   
 and target element 3633.                                                
 For total 16 contact elements, there are 16 elements are in contact.    
 There are 16 elements are in sticking.                                  
 Contacting area 5.E-02.                                                 
 Max.  Pinball distance 1.666666667E-02.                                 
 One of the contact searching regions contains at least 6 target         
 elements.                                                               
 Max.  Pressure/force 1.679904685E-09.                                   
 Max.  Normal stiffness 35419544.9.                                      
 Min.  Normal stiffness 35419544.9.                                      
 Max.  Tangential stiffness 33164353.4.                                  
 Min.  Tangential stiffness 33164353.4.                                  
 *************************************************
  
 *************************************************
  SUMMARY FOR CONTACT PAIR IDENTIFIED BY REAL CONSTANT SET          11

 *** NOTE ***                            CP =       1.266   TIME= 08:47:07
 Contact pair is inactive.                                               


                         ***********  PRECISE MASS SUMMARY  ***********

   TOTAL RIGID BODY MASS MATRIX ABOUT ORIGIN
               Translational mass               |   Coupled translational/rotational mass
        0.63427E-06    0.0000        0.0000     |     0.0000       0.18755E-06  -0.15696E-11
         0.0000       0.63427E-06    0.0000     |   -0.18755E-06    0.0000      -0.26782E-11
         0.0000        0.0000       0.63427E-06 |    0.15696E-11   0.26782E-11    0.0000    
     ------------------------------------------ | ------------------------------------------
                                                |         Rotational mass (inertia)
                                                |    0.25690E-05   0.47716E-08   0.21154E-11
                                                |    0.47716E-08   0.14980E-04   0.15937E-11
                                                |    0.21154E-11   0.15937E-11   0.15271E-04

   TOTAL MASS = 0.63427E-06
     The mass principal axes coincide with the global Cartesian axes

   CENTER OF MASS (X,Y,Z)=  -0.42226E-05   0.24747E-05   0.29569    

   TOTAL INERTIA ABOUT CENTER OF MASS
        0.25136E-05   0.47716E-08   0.13234E-11
        0.47716E-08   0.14925E-04   0.20578E-11
        0.13234E-11   0.20578E-11   0.15271E-04
     The inertia principal axes coincide with the global Cartesian axes


  *** MASS SUMMARY BY ELEMENT TYPE ***

  TYPE      MASS
     1  0.268000E-10
     2  0.268000E-10
     3  0.268000E-10
     4  0.634159E-06
     5  0.268000E-10

 Range of element maximum matrix coefficients in global coordinates
 Maximum = 384006.273 at element 1422.                                   
 Minimum = 5748.65882 at element 80.                                     

   *** ELEMENT MATRIX FORMULATION TIMES
     TYPE    NUMBER   ENAME      TOTAL CP  AVE CP

        1        48  SOLID186      0.000   0.000000
        2        48  SOLID186      0.016   0.000326
        3        48  SOLID186      0.000   0.000000
        4      1922  SOLID187      0.156   0.000081
        5        48  SOLID186      0.031   0.000651
        6        23  CONTA174      0.000   0.000000
        7        23  TARGE170      0.000   0.000000
        8        23  CONTA174      0.000   0.000000
        9        23  TARGE170      0.000   0.000000
       10        23  CONTA174      0.000   0.000000
       11        23  TARGE170      0.000   0.000000
       12        23  CONTA174      0.000   0.000000
       13        23  TARGE170      0.000   0.000000
       14        62  SURF154       0.000   0.000000
       15         4  SURF154       0.000   0.000000
       16         4  SURF154       0.000   0.000000
 Time at end of element matrix formulation CP = 1.265625.                

 DISTRIBUTED SPARSE MATRIX DIRECT SOLVER.
  Number of equations =       14460,    Maximum wavefront =    357

  Local memory allocated for solver              =     24.881 MB
  Local memory required for in-core solution     =     22.440 MB
  Local memory required for out-of-core solution =     15.932 MB

  Total memory allocated for solver              =     46.140 MB
  Total memory required for in-core solution     =     41.297 MB
  Total memory required for out-of-core solution =     26.638 MB

 *** NOTE ***                            CP =       1.438   TIME= 08:47:07
 The Distributed Sparse Matrix Solver is currently running in the        
 in-core memory mode.  This memory mode uses the most amount of memory   
 in order to avoid using the hard drive as much as possible, which most  
 often results in the fastest solution time.  This mode is recommended   
 if enough physical memory is present to accommodate all of the solver   
 data.                                                                   
 curEqn=   7212  totEqn=   7212 Job CP sec=      1.656
      Factor Done= 100% Factor Wall sec=      0.173 rate=    1334.0 Mflops
 Distributed sparse solver maximum pivot= 511813.414 at node 4011 UY.    
 Distributed sparse solver minimum pivot= 589.954775 at node 286 UY.     
 Distributed sparse solver minimum pivot in absolute value= 589.954775   
 at node 286 UY.                                                         

   *** ELEMENT RESULT CALCULATION TIMES
     TYPE    NUMBER   ENAME      TOTAL CP  AVE CP

        1        48  SOLID186      0.016   0.000326
        2        48  SOLID186      0.000   0.000000
        3        48  SOLID186      0.000   0.000000
        4      1922  SOLID187      0.125   0.000065
        5        48  SOLID186      0.000   0.000000
        6        23  CONTA174      0.000   0.000000
        8        23  CONTA174      0.000   0.000000
       10        23  CONTA174      0.000   0.000000
       12        23  CONTA174      0.000   0.000000
       14        62  SURF154       0.000   0.000000
       15         4  SURF154       0.000   0.000000
       16         4  SURF154       0.000   0.000000

   *** NODAL LOAD CALCULATION TIMES
     TYPE    NUMBER   ENAME      TOTAL CP  AVE CP

        1        48  SOLID186      0.000   0.000000
        2        48  SOLID186      0.000   0.000000
        3        48  SOLID186      0.000   0.000000
        4      1922  SOLID187      0.016   0.000008
        5        48  SOLID186      0.000   0.000000
        6        23  CONTA174      0.000   0.000000
        8        23  CONTA174      0.000   0.000000
       10        23  CONTA174      0.000   0.000000
       12        23  CONTA174      0.000   0.000000
       14        62  SURF154       0.000   0.000000
       15         4  SURF154       0.000   0.000000
       16         4  SURF154       0.000   0.000000
 *** LOAD STEP     1   SUBSTEP     1  COMPLETED.    CUM ITER =      1
 *** TIME =   1.00000         TIME INC =   1.00000      NEW TRIANG MATRIX


 *** ANSYS BINARY FILE STATISTICS
  BUFFER SIZE USED= 16384
        0.750 MB WRITTEN ON ELEMENT SAVED DATA FILE: file0.esav
        4.875 MB WRITTEN ON ASSEMBLED MATRIX FILE: file0.full
        1.188 MB WRITTEN ON RESULTS FILE: file0.rst
 *************** Write FE CONNECTORS *********

 WRITE OUT CONSTRAINT EQUATIONS TO FILE= file.ce                                                                                                                                                                                                                                                             
 ****************************************************
 *************** FINISHED SOLVE FOR LS 1 *************

 *GET  _WALLASOL  FROM  ACTI  ITEM=TIME WALL  VALUE=  8.78527778    

 PRINTOUT RESUMED BY /GOP

 FINISH SOLUTION PROCESSING


 ***** ROUTINE COMPLETED *****  CP =         1.859



 *** ANSYS - ENGINEERING ANALYSIS SYSTEM  RELEASE 2019 R3          19.5     ***
 DISTRIBUTED ANSYS Mechanical Enterprise                       

 00000000  VERSION=WINDOWS x64   08:47:07  MAY 02, 2022 CP=      1.859

 female lock fea analysis--Static Structural (A5)                              



          ***** ANSYS RESULTS INTERPRETATION (POST1) *****

 *** NOTE ***                            CP =       1.859   TIME= 08:47:07
 Reading results into the database (SET command) will update the current 
 displacement and force boundary conditions in the database with the     
 values from the results file for that load set.  Note that any          
 subsequent solutions will use these values unless action is taken to    
 either SAVE the current values or not overwrite them (/EXIT,NOSAVE).    

 Set Encoding of XML File to:ISO-8859-1

 Set Output of XML File to:
     PARM,     ,     ,     ,     ,     ,     ,     ,     ,     ,     ,     ,
         ,     ,     ,     ,     ,     ,     ,

 DATABASE WRITTEN ON FILE  parm.xml                                                                                                                                                                                                                                                            

 EXIT THE ANSYS POST1 DATABASE PROCESSOR


 ***** ROUTINE COMPLETED *****  CP =         1.891



 PRINTOUT RESUMED BY /GOP

 *GET  _WALLDONE  FROM  ACTI  ITEM=TIME WALL  VALUE=  8.78527778    

 PARAMETER _PREPTIME =     0.000000000    

 PARAMETER _SOLVTIME =     1.000000000    

 PARAMETER _POSTTIME =     0.000000000    

 PARAMETER _TOTALTIM =     1.000000000    

 *GET  _DLBRATIO  FROM  ACTI  ITEM=SOLU DLBR  VALUE=  1.02802102    

 *GET  _COMBTIME  FROM  ACTI  ITEM=SOLU COMB  VALUE= 0.247834000E-01
 --- Number of total nodes = 5115
 --- Number of total elements = 2368
 --- Element load balance ratio = 1.02802102
 --- Time to combine distributed files = 2.47834E-02

 EXIT ANSYS WITHOUT SAVING DATABASE


 NUMBER OF WARNING MESSAGES ENCOUNTERED=          2
 NUMBER OF ERROR   MESSAGES ENCOUNTERED=          0

+--------- D I S T R I B U T E D   A N S Y S   S T A T I S T I C S ------------+

Release: 2019 R3            Build: 19.5       Update: UP20190805   Platform: WINDOWS x64 
Date Run: 05/02/2022   Time: 08:47     Process ID: 5124
Operating System: Windows 10  (Build: 19044)

Processor Model: AMD Ryzen 5 4600H with Radeon Graphics

Compiler: Intel(R) FORTRAN Compiler Version 17.0.6  (Build: 20171215)
          Intel(R) C/C++ Compiler Version 17.0.6  (Build: 20171215)
          Intel(R) Math Kernel Library Version 2017.0.3 Product Build 20170413

Number of machines requested            :    1
Total number of cores available         :   12
Number of physical cores available      :    6
Number of processes requested           :    2
Number of threads per process requested :    1
Total number of cores requested         :    2 (Distributed Memory Parallel)               
MPI Type: INTELMPI
MPI Version: Intel(R) MPI Library 2018 Update 3 for Windows* OS


GPU Acceleration: Not Requested

Job Name: file0
Input File: dummy.dat

  Core                Machine Name   Working Directory
 -----------------------------------------------------
     0             LAPTOP-6LCRPCG5   C:\Users\Rajatsurya\OneDrive\Documents\antenna booming mechanism fea analysis\_ProjectScratch\Scr57D7
     1             LAPTOP-6LCRPCG5   C:\Users\Rajatsurya\OneDrive\Documents\antenna booming mechanism fea analysis\_ProjectScratch\Scr57D7
 
Latency time from master to core     1 =    1.495 microseconds
 
Communication speed from master to core     1 =  2098.96 MB/sec

Total CPU time for main thread                    :        1.7 seconds
Total CPU time summed for all threads             :        2.1 seconds

Elapsed time spent pre-processing model (/PREP7)  :        0.1 seconds
Elapsed time spent solution - preprocessing       :        0.2 seconds
Elapsed time spent computing solution             :        0.8 seconds
Elapsed time spent solution - postprocessing      :        0.0 seconds
Elapsed time spent post-processing model (/POST1) :        0.0 seconds
 
Equation solver used                              :            Sparse (symmetric)
Equation solver computational rate                :        2.4 Gflops

Maximum total memory used                         :      284.0 MB
Maximum total memory allocated                    :     3136.0 MB
Total physical memory available                   :          7 GB

Total amount of I/O written to disk               :        0.0 GB
Total amount of I/O read from disk                :        0.0 GB

+------ E N D   D I S T R I B U T E D   A N S Y S   S T A T I S T I C S -------+


 *---------------------------------------------------------------------------*
 |                                                                           |
 |                       DISTRIBUTED ANSYS RUN COMPLETED                     |
 |                                                                           |
 |---------------------------------------------------------------------------|
 |                                                                           |
 | Ansys 2019 R3               Build 19.5         UP20190805     WINDOWS x64 |
 |                                                                           |
 |---------------------------------------------------------------------------|
 |                                                                           |
 | Database Requested(-db)  1024 MB    Scratch Memory Requested      1024 MB |
 | Maximum Database Used       4 MB    Maximum Scratch Memory Used    143 MB |
 |                                                                           |
 |---------------------------------------------------------------------------|
 |                                                                           |
 |        CP Time      (sec) =          2.141       Time  =  08:47:08        |
 |        Elapsed Time (sec) =          4.000       Date  =  05/02/2022      |
 |                                                                           |
 *---------------------------------------------------------------------------*
