/batch
/config,noeldb,1     ! force off writing results to database
*get,_wallstrt,active,,time,wall
! ANSYS input file written by Workbench version 2019 R3
! File used for geometry attach: C:\Users\Rajatsurya\Documents\columns\columns without base.igs
/title,column fea analysis--Static Structural (A5)
*DIM,_wb_ProjectScratch_dir,string,248
_wb_ProjectScratch_dir(1) = 'C:\Users\Rajatsurya\Documents\_ProjectScratch\ScrB664\'
*DIM,_wb_SolverFiles_dir,string,248
_wb_SolverFiles_dir(1) = 'C:\Users\Rajatsurya\Documents\column fea analysis_files\dp0\SYS\MECH\'
*DIM,_wb_userfiles_dir,string,248
_wb_userfiles_dir(1) = 'C:\Users\Rajatsurya\Documents\column fea analysis_files\user_files\'
/com,--- Data in consistent MKS units. See Solving Units in the help system for more information.
/units,MKS
/nopr
/wb,file,start              !  signify a WB generated input file
/prep7
! Turn off shape checking because checks already performed inside WB mesher.
! See help system for more information.
SHPP,OFF,,NOWARN
/nolist
etcon,set             ! allow ANSYS to choose best KEYOP's for 180x elements
/com,*********** Nodes for the whole assembly ***********
nblock,3,,1386
(1i9,3e20.9e3)
        1     2.266589169E-04    -9.094854720E-04     1.714285717E-01
        2     1.070943570E-03    -8.673785372E-04     1.714285715E-01
        3     1.407179628E-03    -8.073264568E-05     1.714285715E-01
        4     8.424476098E-04     6.156135883E-04     1.714285714E-01
        5    -9.472795617E-04     8.833230664E-04     1.714285714E-01
        6    -1.221230540E-03     1.212496179E-04     1.714285714E-01
        7    -6.006159086E-04    -5.321162531E-04     1.714285716E-01
        8    -3.805535439E-05     9.764100381E-04     1.714285714E-01
        9     2.266593435E-04    -9.094858865E-04     1.628571441E-01
       10     1.070943751E-03    -8.673786532E-04     1.628571436E-01
       11     1.407179670E-03    -8.073268816E-05     1.628571430E-01
       12     8.424472989E-04     6.156132941E-04     1.628571435E-01
       13    -9.472800259E-04     8.833226022E-04     1.628571438E-01
       14    -1.221230604E-03     1.212495542E-04     1.628571430E-01
       15    -6.006156286E-04    -5.321165331E-04     1.628571436E-01
       16    -3.805585643E-05     9.764095507E-04     1.628571439E-01
       17     2.266594181E-04    -9.094859454E-04     1.542857155E-01
       18     1.070943850E-03    -8.673786697E-04     1.542857150E-01
       19     1.407179676E-03    -8.073269420E-05     1.542857144E-01
       20     8.424474769E-04     6.156134625E-04     1.542857146E-01
! ... 1241 like lines cut
/wb,elem,start            !  set before creation of elements
/com,*********** Elements for Body 1 "columns without base-FreeParts|PartBody" ***********
et,1,186
keyo,1,2,1          ! set full integration on SOLID186
eblock,19,solid,,231
(19i9)
        1        1        1        1        0        0        0        0       20        0        1        1        4        8        7      168      165      161      162
      354      367      380      355      892      883      881      886      357      369      385      382
        1        1        1        1        0        0        0        0       20        0        2        1        7        8        4        9       15       16       12
      355      380      367      354      389      408      398      388      356      381      384      368
        1        1        1        1        0        0        0        0       20        0        3        9       15       16       12       17       23       24       20
      389      408      398      388      415      434      424      414      390      409      411      399
        1        1        1        1        0        0        0        0       20        0        4       17       23       24       20       25       31       32       28
      415      434      424      414      441      460      450      440      416      435      437      425
        1        1        1        1        0        0        0        0       20        0        5       25       31       32       28       33       39       40       36
      441      460      450      440      467      486      476      466      442      461      463      451
        1        1        1        1        0        0        0        0       20        0        6       33       39       40       36       41       47       48       44
      467      486      476      466      493      512      502      492      468      487      489      477
        1        1        1        1        0        0        0        0       20        0        7       41       47       48       44       49       55       56       52
      493      512      502      492      519      538      528      518      494      513      515      503
        1        1        1        1        0        0        0        0       20        0        8       49       55       56       52       57       63       64       60
      519      538      528      518      545      564      554      544      520      539      541      529
        1        1        1        1        0        0        0        0       20        0        9       57       63       64       60       65       71       72       68
      545      564      554      544      571      590      580      570      546      565      567      555
        1        1        1        1        0        0        0        0       20        0       10       65       71       72       68       73       79       80       76
      571      590      580      570      597      616      606      596      572      591      593      581
! ... 443 like lines cut
!Material Id = {DCA3353D-96E1-4E9F-816B-CC0935524B55}
/wb,elem,end               !  done creating elements
/com,*********** Send User Defined Coordinate System(s) ***********
csys,0
toffst,273.15,  ! Temperature offset from absolute zero
/com,*********** Set Reference Temperature ***********
tref,22.
/wb,mat,start              !  starting to send materials
/com,*********** Send Materials ***********
Temperature = 'TEMP' ! Temperature
MP,DENS,1,7850,	! kg m^-3
MP,ALPX,1,1.2e-05,	! C^-1
MP,C,1,434,	! J kg^-1 C^-1
MP,KXX,1,60.5,	! W m^-1 C^-1
MP,RSVX,1,1.7e-07,	! kg m^3 A^-2 s^-3
MP,EX,1,200000000000,	! Pa
MP,NUXY,1,0.3,
MP,MURX,1,10000,

/wb,mat,end                !  done sending materials
!************************* Model Summary ********************
!columns without base-FreeParts|PartBody,	Structural Steel,	matid,	1
!************************* End Model Summary ********************
! get the diagonal of the bounding box. Needed later for other things
*get,_xmin,node,,mnloc,x
*get,_ymin,node,,mnloc,y
*get,_zmin,node,,mnloc,z
*get,_xmax,node,,mxloc,x
*get,_ymax,node,,mxloc,y
*get,_zmax,node,,mxloc,z
_ASMDIAG=(_xmax-_xmin)*(_xmax-_xmin)+(_ymax-_ymin)*(_ymax-_ymin)+(_zmax-_zmin)*(_zmax-_zmin)
_ASMDIAG=SQRT(_ASMDIAG)
/wb,contact,start          !  starting to send contact
/wb,contact,end            !  done creating contacts
/golist
/wb,load,start             !  starting to send loads
/com,*********** Fixed Supports ***********
CMBLOCK,_FIXEDSU,NODE,        9
(8i10)
       246       249       350       351       352      1076      1080      1259
      1260
cmsel,s,_FIXEDSU
d,all,all
nsel,all
/com,*********** Define Force Using Surface Effect Elements ***********
local,12,0,0.,0.,0.,0.,0.,0.
csys,0
et,2,154
eblock,10,,,84
(15i9)
      422        2        2        2       12      270      290      179      180     1121      923      922      925
      423        2        2        2       12      271      293      290      270     1123     1160     1121     1120
      424        2        2        2       12      272      296      293      271     1125     1165     1123     1122
      425        2        2        2       12      273      299      296      272     1127     1170     1125     1124
      426        2        2        2       12      274      302      299      273     1129     1175     1127     1126
      427        2        2        2       12      275      305      302      274     1131     1180     1129     1128
      428        2        2        2       12      276      308      305      275     1133     1185     1131     1130
      429        2        2        2       12      277      311      308      276     1135     1190     1133     1132
      430        2        2        2       12      278      314      311      277     1137     1195     1135     1134
      431        2        2        2       12      279      317      314      278     1139     1200     1137     1136
      432        2        2        2       12      280      320      317      279     1141     1205     1139     1138
      433        2        2        2       12      281      323      320      280     1143     1210     1141     1140
      434        2        2        2       12      282      326      323      281     1145     1215     1143     1142
      435        2        2        2       12      283      329      326      282     1147     1220     1145     1144
      436        2        2        2       12      284      332      329      283     1149     1225     1147     1146
      437        2        2        2       12      285      335      332      284     1151     1230     1149     1148
      438        2        2        2       12      286      338      335      285     1153     1235     1151     1150
      439        2        2        2       12      287      341      338      286     1155     1240     1153     1152
      440        2        2        2       12      288      344      341      287     1157     1245     1155     1154
      441        2        2        2       12      289      347      344      288     1158     1250     1157     1156
! ... 65 like lines cut
esel,s,type,,2
keyop,2,2,1                ! Apply load in local coordinate system
keyop,2,7,1                ! Use original area so load is constant in large deformation
keyop,2,11,2               ! Use real and not project area
esel,all
/gst,on,on
fini
*get,_numnode,node,0,count
*get,_numelem,elem,0,count
*get, _MAXELEMNUM, elem, 0, NUM, MAX
*get, _MAXNODENUM, node, 0, NUM, MAX
*get, _MAXELEMTYPE, etyp, 0, NUM, MAX
*get, _MAXREALCONST, real, 0, NUM, MAX
/go
/wb,load,end               !  done creating loads
/com,--- Number of total nodes = %_numnode%
/com,--- Number of contact elements = 84
/com,--- Number of spring elements = 0
/com,--- Number of bearing elements = 0
/com,--- Number of solid elements = 231
/com,--- Number of condensed parts = 0
/com,--- Number of total elements = %_numelem%
*get,_wallbsol,active,,time,wall
/com,****************************************************************************
/com,*************************    SOLUTION       ********************************
/com,****************************************************************************
/solu
antype,0                   ! static analysis
_thickRatio=  1     ! Ratio of thick parts in the model
eqsl,pcg,1e-8,,,,,,1
cntr,print,1               ! print out contact info and also make no initial contact an error
dmpoption,emat,no             ! Don't combine emat file for DANSYS
dmpoption,esav,no             ! Don't combine esav file for DANSYS
nldiag,cont,iter           ! print out contact info each equilibrium iteration
rescontrol,,none                 ! Do not keep any restart files
/com,****************************************************
/com,******************* SOLVE FOR LS 1 OF 1 ****************
esel,s,type,,2
nsle
sfe,all,1,pres,1,7862.44055741232
sfe,all,2,pres,1,-5.48655958450526e-013
sfe,all,3,pres,1,0.
nsel,all
esel,all
/nopr
/gopr
nsub,1,1,1
time,1.
outres,erase
outres,all,none
outres,nsol,all,
outres,rsol,all
outres,eangl,all
outres,etmp,all
outres,veng,all
outres,strs,all,
outres,epel,all,
outres,eppl,all,
outres,cont,all,
! *********** WB SOLVE COMMAND ***********
! check interactive state
*get,ANSINTER_,active,,int
*if,ANSINTER_,ne,0,then
/eof
*endif
solve
/com *************** Write FE CONNECTORS ********* 
CEWRITE,file,ce,,INTE
/com,****************************************************
/com,*************** FINISHED SOLVE FOR LS 1 *************
*get,_wallasol,active,,time,wall
/nopr
*get,_numnode,node,0,count
*get,_numelem,elem,0,count
*get, _MAXELEMNUM, elem, 0, NUM, MAX
*get, _MAXNODENUM, node, 0, NUM, MAX,,,INTERNAL
*get, _MAXELEMTYPE, etyp, 0, NUM, MAX
*get, _MAXREALCONST, real, 0, NUM, MAX
/gopr
*get,_PCGITER,active,,solu,cgiter
/post1
xmlo,ENCODING,ISO-8859-1
xmlo,parm
/xml,parm,xml
fini
/gopr
*get,_walldone,active,,time,wall
_preptime=(_wallbsol-_wallstrt)*3600
_solvtime=(_wallasol-_wallbsol)*3600
_posttime=(_walldone-_wallasol)*3600
_totaltim=(_walldone-_wallstrt)*3600
*get,_dlbratio,active,0,solu,dlbr
*get,_combtime,active,0,solu,comb
/com,--- Number of total nodes = %_numnode%
/com,--- Number of total elements = %_numelem%
/com,--- Element load balance ratio = %_dlbratio%
/com,--- Time to combine distributed files = %_combtime%
/wb,file,end               ! done with WB generated input
