/batch
/config,noeldb,1     ! force off writing results to database
*get,_wallstrt,active,,time,wall
! ANSYS input file written by Workbench version 2019 R3
! File used for geometry attach: C:\Users\Rajatsurya\OneDrive\Documents\antenna booming mechanism fea analysis\assembled female lock for fea analysis.igs
/title,female lock fea analysis--Static Structural (A5)
*DIM,_wb_ProjectScratch_dir,string,248
_wb_ProjectScratch_dir(1) = 'C:\Users\Rajatsurya\OneDrive\Documents\antenna booming mechanism fea analysis\_ProjectScratch\Scr57D7\'
*DIM,_wb_SolverFiles_dir,string,248
_wb_SolverFiles_dir(1) = 'C:\Users\Rajatsurya\OneDrive\Documents\antenna booming mechanism fea analysis\female lock fea analysis_files\dp0\SYS\MECH\'
*DIM,_wb_userfiles_dir,string,248
_wb_userfiles_dir(1) = 'C:\Users\Rajatsurya\OneDrive\Documents\antenna booming mechanism fea analysis\female lock fea analysis_files\user_files\'
/com,--- Data in consistent NMM units. See Solving Units in the help system for more information.
/units,MPA
/nopr
/wb,file,start              !  signify a WB generated input file
/prep7
! Turn off shape checking because checks already performed inside WB mesher.
! See help system for more information.
SHPP,OFF,,NOWARN
/nolist
etcon,set             ! allow ANSYS to choose best KEYOP's for 180x elements
/com,*********** Nodes for the whole assembly ***********
nblock,3,,5626
(1i9,3e20.9e3)
        1     2.437500000E+00     7.000000000E-01     6.666666667E-02
        2     2.437500000E+00     7.000000000E-01     1.333333333E-01
        3     2.375000000E+00     7.000000000E-01     6.666666667E-02
        4     2.375000000E+00     7.000000000E-01     1.333333333E-01
        5     2.312500000E+00     7.000000000E-01     6.666666667E-02
        6     2.312500000E+00     7.000000000E-01     1.333333333E-01
        7     2.250000000E+00     7.000000000E-01     6.666666667E-02
        8     2.250000000E+00     7.000000000E-01     1.333333333E-01
        9     2.187500000E+00     7.000000000E-01     6.666666667E-02
       10     2.187500000E+00     7.000000000E-01     1.333333333E-01
       11     2.125000000E+00     7.000000000E-01     6.666666667E-02
       12     2.125000000E+00     7.000000000E-01     1.333333333E-01
       13     2.062500000E+00     7.000000000E-01     6.666666667E-02
       14     2.062500000E+00     7.000000000E-01     1.333333333E-01
       15     2.062500000E+00     6.500000000E-01     1.333333333E-01
       16     2.062500000E+00     6.500000000E-01     6.666666667E-02
       17     2.125000000E+00     6.500000000E-01     1.333333333E-01
       18     2.125000000E+00     6.500000000E-01     6.666666667E-02
       19     2.187500000E+00     6.500000000E-01     1.333333333E-01
       20     2.187500000E+00     6.500000000E-01     6.666666667E-02
! ... 5096 like lines cut
/wb,elem,start            !  set before creation of elements
/com,*********** Elements for Body 1 "assembled female lock for fea analysis-FreeParts" ***********
et,1,186
keyo,1,2,1          ! set full integration on SOLID186
eblock,19,solid,,48
(19i9)
        1        1        1        1        0        0        0        0       20        0       49      358      458      445      440      385      459      444      442
      471      686      680      470      567      685      683      566      468      708      684      679
        1        1        1        1        0        0        0        0       20        0       50      358      440      445      458      386      411      410      400
      470      680      686      471      571      626      606      570      469      629      627      607
        1        1        1        1        0        0        0        0       20        0       51      358      360      457      458      385      383      460      459
      467      481      706      471      561      562      709      567      468      479      707      708
        1        1        1        1        0        0        0        0       20        0       52      358      458      457      360      386      400      401      388
      471      706      481      467      570      605      577      569      469      607      609      480
        1        1        1        1        0        0        0        0       20        0       53      360      362      456      457      383      381      461      460
      478      490      704      481      556      557      710      562      479      488      705      707
        1        1        1        1        0        0        0        0       20        0       54      360      457      456      362      388      401      402      390
      481      704      490      478      577      608      582      576      480      609      611      489
        1        1        1        1        0        0        0        0       20        0       55      362      364      455      456      381      379      462      461
      487      499      702      490      551      552      711      557      488      497      703      705
        1        1        1        1        0        0        0        0       20        0       56      362      456      455      364      390      402      403      392
      490      702      499      487      582      610      587      581      489      611      613      498
        1        1        1        1        0        0        0        0       20        0       57      364      366      454      455      379      377      463      462
      496      508      700      499      546      547      712      552      497      506      701      703
        1        1        1        1        0        0        0        0       20        0       58      364      455      454      366      392      403      404      394
      499      700      508      496      587      612      592      586      498      613      615      507
! ... 77 like lines cut
!Material Id = {CCE4C368-5EC0-465D-BCBB-815D9CA10686}
/com,*********** Elements for Body 2 "assembled female lock for fea analysis-FreeParts[2]" ***********
et,2,186
keyo,2,2,1          ! set full integration on SOLID186
eblock,19,solid,,48
(19i9)
        2        2        2        2        0        0        0        0       20        0     2019     4402     4496     4495     4490     4429     4503     4494     4493
     4515     4739     4733     4514     4611     4738     4736     4610     4512     4741     4737     4732
        2        2        2        2        0        0        0        0       20        0     2020     4402     4490     4495     4496     4430     4452     4453     4444
     4514     4733     4739     4515     4615     4667     4650     4614     4513     4668     4669     4651
        2        2        2        2        0        0        0        0       20        0     2021     4402     4404     4497     4496     4429     4427     4504     4503
     4511     4525     4740     4515     4605     4606     4753     4611     4512     4523     4743     4741
        2        2        2        2        0        0        0        0       20        0     2022     4402     4496     4497     4404     4430     4444     4445     4432
     4515     4740     4525     4511     4614     4649     4621     4613     4513     4651     4653     4524
        2        2        2        2        0        0        0        0       20        0     2023     4404     4406     4498     4497     4427     4425     4505     4504
     4522     4534     4742     4525     4600     4601     4754     4606     4523     4532     4745     4743
        2        2        2        2        0        0        0        0       20        0     2024     4404     4497     4498     4406     4432     4445     4446     4434
     4525     4742     4534     4522     4621     4652     4626     4620     4524     4653     4655     4533
        2        2        2        2        0        0        0        0       20        0     2025     4406     4408     4499     4498     4425     4423     4506     4505
     4531     4543     4744     4534     4595     4596     4755     4601     4532     4541     4747     4745
        2        2        2        2        0        0        0        0       20        0     2026     4406     4498     4499     4408     4434     4446     4447     4436
     4534     4744     4543     4531     4626     4654     4631     4625     4533     4655     4657     4542
        2        2        2        2        0        0        0        0       20        0     2027     4408     4410     4500     4499     4423     4421     4507     4506
     4540     4552     4746     4543     4590     4591     4756     4596     4541     4550     4749     4747
        2        2        2        2        0        0        0        0       20        0     2028     4408     4499     4500     4410     4436     4447     4448     4438
     4543     4746     4552     4540     4631     4656     4636     4630     4542     4657     4659     4551
! ... 77 like lines cut
!Material Id = {E25359C5-9654-42F1-A8A4-9FFF8C1BCE0A}
/com,*********** Elements for Body 3 "assembled female lock for fea analysis-FreeParts[3]" ***********
et,3,186
keyo,3,2,1          ! set full integration on SOLID186
eblock,19,solid,,48
(19i9)
        3        3        3        3        0        0        0        0       20        0     2067     4759     4859     4846     4841     4786     4860     4845     4843
     4872     5087     5081     4871     4968     5086     5084     4967     4869     5109     5085     5080
        3        3        3        3        0        0        0        0       20        0     2068     4759     4841     4846     4859     4787     4812     4811     4801
     4871     5081     5087     4872     4972     5027     5007     4971     4870     5030     5028     5008
        3        3        3        3        0        0        0        0       20        0     2069     4759     4761     4858     4859     4786     4784     4861     4860
     4868     4882     5107     4872     4962     4963     5110     4968     4869     4880     5108     5109
        3        3        3        3        0        0        0        0       20        0     2070     4759     4859     4858     4761     4787     4801     4802     4789
     4872     5107     4882     4868     4971     5006     4978     4970     4870     5008     5010     4881
        3        3        3        3        0        0        0        0       20        0     2071     4761     4763     4857     4858     4784     4782     4862     4861
     4879     4891     5105     4882     4957     4958     5111     4963     4880     4889     5106     5108
        3        3        3        3        0        0        0        0       20        0     2072     4761     4858     4857     4763     4789     4802     4803     4791
     4882     5105     4891     4879     4978     5009     4983     4977     4881     5010     5012     4890
        3        3        3        3        0        0        0        0       20        0     2073     4763     4765     4856     4857     4782     4780     4863     4862
     4888     4900     5103     4891     4952     4953     5112     4958     4889     4898     5104     5106
        3        3        3        3        0        0        0        0       20        0     2074     4763     4857     4856     4765     4791     4803     4804     4793
     4891     5103     4900     4888     4983     5011     4988     4982     4890     5012     5014     4899
        3        3        3        3        0        0        0        0       20        0     2075     4765     4767     4855     4856     4780     4778     4864     4863
     4897     4909     5101     4900     4947     4948     5113     4953     4898     4907     5102     5104
        3        3        3        3        0        0        0        0       20        0     2076     4765     4856     4855     4767     4793     4804     4805     4795
     4900     5101     4909     4897     4988     5013     4993     4987     4899     5014     5016     4908
! ... 77 like lines cut
!Material Id = {A40C3170-D9A6-465E-ACC2-B30AD278985D}
/com,*********** Elements for Body 4 "assembled female lock for fea analysis-FreeParts[4]" ***********
et,4,187
eblock,19,solid,,1922
(19i9)
        4        4        4        4        0        0        0        0       10        0       97     1052     1085     1086     1342     3412     3514     3413     3414
     3516     3517
        4        4        4        4        0        0        0        0       10        0       98     1051     1085     1342     1336     3407     3516     3409     3408
     3515     4401
        4        4        4        4        0        0        0        0       10        0       99     1051     1085     1052     1342     3407     3412     3405     3409
     3516     3414
        4        4        4        4        0        0        0        0       10        0      100      793     1342     1085     1336     1827     3516     1823     1826
     4401     3515
        4        4        4        4        0        0        0        0       10        0      101      793     1085     1342     1065     1823     3516     1827     1821
     3464     3466
        4        4        4        4        0        0        0        0       10        0      102     1065     1086     1085     1342     3465     3514     3464     3466
     3517     3516
        4        4        4        4        0        0        0        0       10        0      103     1052     1086     1062     1342     3413     3454     3411     3414
     3517     3455
        4        4        4        4        0        0        0        0       10        0      104     1051     1052     1061     1342     3405     3410     3406     3409
     3414     3451
        4        4        4        4        0        0        0        0       10        0      105      742     1051     1342     1336     1516     3409     1524     1523
     3408     4401
        4        4        4        4        0        0        0        0       10        0      106      742     1061     1342     1051     1518     3451     1524     1516
     3406     3409
! ... 3825 like lines cut
!Material Id = {C0E29A68-2427-4A29-9A5A-42F9451DCF6D}
/com,*********** Elements for Body 5 "assembled female lock for fea analysis-FreeParts|PartBody" ***********
et,5,186
keyo,5,2,1          ! set full integration on SOLID186
eblock,19,solid,,48
(19i9)
        5        5        5        5        0        0        0        0       20        0        1        1       95       94       89       28      102       93       92
      114      338      332      113      210      337      335      209      111      340      336      331
        5        5        5        5        0        0        0        0       20        0        2        1       89       94       95       29       51       52       43
      113      332      338      114      214      266      249      213      112      267      268      250
        5        5        5        5        0        0        0        0       20        0        3        1        3       96       95       28       26      103      102
      110      124      339      114      204      205      352      210      111      122      342      340
        5        5        5        5        0        0        0        0       20        0        4        1       95       96        3       29       43       44       31
      114      339      124      110      213      248      220      212      112      250      252      123
        5        5        5        5        0        0        0        0       20        0        5        3        5       97       96       26       24      104      103
      121      133      341      124      199      200      353      205      122      131      344      342
        5        5        5        5        0        0        0        0       20        0        6        3       96       97        5       31       44       45       33
      124      341      133      121      220      251      225      219      123      252      254      132
        5        5        5        5        0        0        0        0       20        0        7        5        7       98       97       24       22      105      104
      130      142      343      133      194      195      354      200      131      140      346      344
        5        5        5        5        0        0        0        0       20        0        8        5       97       98        7       33       45       46       35
      133      343      142      130      225      253      230      224      132      254      256      141
        5        5        5        5        0        0        0        0       20        0        9        7        9       99       98       22       20      106      105
      139      151      345      142      189      190      355      195      140      149      348      346
        5        5        5        5        0        0        0        0       20        0       10        7       98       99        9       35       46       47       37
      142      345      151      139      230      255      235      229      141      256      258      150
! ... 77 like lines cut
!Material Id = {70FC5720-BCB6-45D5-B391-0B6FC3DBD755}
/wb,elem,end               !  done creating elements
/com,*********** Send User Defined Coordinate System(s) ***********
csys,0
toffst,273.15,  ! Temperature offset from absolute zero
/com,*********** Set Reference Temperature ***********
tref,-271.1
/wb,mat,start              !  starting to send materials
/com,*********** Send Materials ***********
MP,DENS,1,2.68e-09,	! tonne mm^-3
MP,EX,1,73000,	! tonne s^-2 mm^-1
MP,NUXY,1,0.33,
MP,KXX,1,152,	! tonne mm s^-3 C^-1
MP,ALPX,1,2.15e-05,	! C^-1
MP,C,1,963000000,	! mm^2 s^-2 C^-1
MP,RSVX,1,4.4e-05,	! ohm mm

MP,DENS,2,2.68e-09,	! tonne mm^-3
MP,EX,2,73000,	! tonne s^-2 mm^-1
MP,NUXY,2,0.33,
MP,KXX,2,152,	! tonne mm s^-3 C^-1
MP,ALPX,2,2.15e-05,	! C^-1
MP,C,2,963000000,	! mm^2 s^-2 C^-1
MP,RSVX,2,4.4e-05,	! ohm mm

MP,DENS,3,2.68e-09,	! tonne mm^-3
MP,EX,3,73000,	! tonne s^-2 mm^-1
MP,NUXY,3,0.33,
MP,KXX,3,152,	! tonne mm s^-3 C^-1
MP,ALPX,3,2.15e-05,	! C^-1
MP,C,3,963000000,	! mm^2 s^-2 C^-1
MP,RSVX,3,4.4e-05,	! ohm mm

MP,DENS,4,2.68e-09,	! tonne mm^-3
MP,EX,4,73000,	! tonne s^-2 mm^-1
MP,NUXY,4,0.33,
MP,KXX,4,152,	! tonne mm s^-3 C^-1
MP,ALPX,4,2.15e-05,	! C^-1
MP,C,4,963000000,	! mm^2 s^-2 C^-1
MP,RSVX,4,4.4e-05,	! ohm mm

MP,DENS,5,2.68e-09,	! tonne mm^-3
MP,EX,5,73000,	! tonne s^-2 mm^-1
MP,NUXY,5,0.33,
MP,KXX,5,152,	! tonne mm s^-3 C^-1
MP,ALPX,5,2.15e-05,	! C^-1
MP,C,5,963000000,	! mm^2 s^-2 C^-1
MP,RSVX,5,4.4e-05,	! ohm mm

/wb,mat,end                !  done sending materials
!************************* Model Summary ********************
!assembled female lock for fea analysis-FreeParts,	Aluminum alloy, cast,	matid,	1
!assembled female lock for fea analysis-FreeParts[2],	Aluminum alloy, cast,	matid,	2
!assembled female lock for fea analysis-FreeParts[3],	Aluminum alloy, cast,	matid,	3
!assembled female lock for fea analysis-FreeParts[4],	Aluminum alloy, cast,	matid,	4
!assembled female lock for fea analysis-FreeParts|PartBody,	Aluminum alloy, cast,	matid,	5
!************************* End Model Summary ********************
! get the diagonal of the bounding box. Needed later for other things
*get,_xmin,node,,mnloc,x
*get,_ymin,node,,mnloc,y
*get,_zmin,node,,mnloc,z
*get,_xmax,node,,mxloc,x
*get,_ymax,node,,mxloc,y
*get,_zmax,node,,mxloc,z
_ASMDIAG=(_xmax-_xmin)*(_xmax-_xmin)+(_ymax-_ymin)*(_ymax-_ymin)+(_zmax-_zmin)*(_zmax-_zmin)
_ASMDIAG=SQRT(_ASMDIAG)
/wb,contact,start          !  starting to send contact
/com,*********** Create Contact "Contact Region" ***********
/com,            Real Constant Set For Above Contact Is 7 & 6 
*set,tid,7
*set,cid,6
r,tid
r,cid
et,tid,170
et,cid,174
eblock,10,,,16
(15i9)
     3499        7        7        7        0      450      452      465      451      694      697      695      693
     3500        7        7        7        0      407      406      452      450      618      619      694      621
     3501        7        7        7        0      452      453      464      465      696      699      714      697
     3502        7        7        7        0      406      405      453      452      616      617      696      619
     3503        7        7        7        0      453      454      463      464      698      701      713      699
     3504        7        7        7        0      405      404      454      453      614      615      698      617
     3505        7        7        7        0      454      455      462      463      700      703      712      701
     3506        7        7        7        0      404      403      455      454      612      613      700      615
     3507        7        7        7        0      455      456      461      462      702      705      711      703
     3508        7        7        7        0      403      402      456      455      610      611      702      613
     3509        7        7        7        0      456      457      460      461      704      707      710      705
     3510        7        7        7        0      402      401      457      456      608      609      704      611
     3511        7        7        7        0      457      458      459      460      706      708      709      707
     3512        7        7        7        0      401      400      458      457      605      607      706      609
     3513        7        7        7        0      458      445      444      459      686      684      685      708
     3514        7        7        7        0      400      410      445      458      606      627      686      607
-1
eblock,10,,,16
(15i9)
     3515        6        6        6        0      450      452      465      451      694      697      695      693
     3516        6        6        6        0      407      406      452      450      618      619      694      621
     3517        6        6        6        0      452      453      464      465      696      699      714      697
     3518        6        6        6        0      406      405      453      452      616      617      696      619
     3519        6        6        6        0      453      454      463      464      698      701      713      699
     3520        6        6        6        0      405      404      454      453      614      615      698      617
     3521        6        6        6        0      454      455      462      463      700      703      712      701
     3522        6        6        6        0      404      403      455      454      612      613      700      615
     3523        6        6        6        0      455      456      461      462      702      705      711      703
     3524        6        6        6        0      403      402      456      455      610      611      702      613
     3525        6        6        6        0      456      457      460      461      704      707      710      705
     3526        6        6        6        0      402      401      457      456      608      609      704      611
     3527        6        6        6        0      457      458      459      460      706      708      709      707
     3528        6        6        6        0      401      400      458      457      605      607      706      609
     3529        6        6        6        0      458      445      444      459      686      684      685      708
     3530        6        6        6        0      400      410      445      458      606      627      686      607
-1
eblock,10,,,7
(15i9)
     3531        6        7        6        0      956      962     1184     1184     2760     2793     1184     2764
     3532        6        7        6        0     1184     1188     1191     1191     3930     3954     1191     3932
     3533        6        7        6        0      962     1117     1185     1185     2792     3615     1185     2794
     3534        6        7        6        0      953      962      956      956     2723     2760      956     2721
     3535        6        7        6        0      962     1185     1184     1184     2794     3929     1184     2793
     3536        6        7        6        0      956     1184     1191     1191     2764     3932     1191     2765
     3537        6        7        6        0      956     1191     1159     1159     2765     3798     1159     2763
-1
eblock,10,,,7
(15i9)
     3538        7        6        7        0      956      962     1184     1184     2760     2793     1184     2764
     3539        7        6        7        0     1184     1188     1191     1191     3930     3954     1191     3932
     3540        7        6        7        0      962     1117     1185     1185     2792     3615     1185     2794
     3541        7        6        7        0      953      962      956      956     2723     2760      956     2721
     3542        7        6        7        0      962     1185     1184     1184     2794     3929     1184     2793
     3543        7        6        7        0      956     1184     1191     1191     2764     3932     1191     2765
     3544        7        6        7        0      956     1191     1159     1159     2765     3798     1159     2763
-1
keyo,cid,8,2               ! auto create asymmetric contact (from Program Controlled setting)
keyo,cid,10,0              ! adjust contact stiffness each NR iteration (from Program Controlled setting)
keyo,cid,12,5              ! bonded always
keyo,cid,18,1              ! small sliding turned on by application
keyo,cid,2,0               ! augmented Lagrange (from Program Controlled setting)
keyo,cid,4,0               ! on Gauss point (from Program Controlled setting)
keyo,cid,9,1               ! ignore initial gaps/penetration
keyo,cid,7,0               ! No Prediction
rmod,tid,3,10.      ! FKN
rmod,tid,5,0.       ! ICONT
rmod,tid,6,0.       ! PINB
rmod,tid,10,0.      ! CNOF
rmod,tid,12,0.      ! FKT
rmod,tid,36,36      ! WB DSID
rmod,cid,3,10.      ! FKN
rmod,cid,5,0.       ! ICONT
rmod,cid,6,0.       ! PINB
rmod,cid,10,0.      ! CNOF
rmod,cid,12,0.      ! FKT
rmod,cid,36,36      ! WB DSID
/com,*********** Create Contact "Contact Region 2" ***********
/com,            Real Constant Set For Above Contact Is 9 & 8 
*set,tid,9
*set,cid,8
r,tid
r,cid
et,tid,170
et,cid,174
eblock,10,,,16
(15i9)
     3545        9        9        9        0     4503     4496     4495     4494     4741     4739     4737     4738
     3546        9        9        9        0     4504     4497     4496     4503     4743     4740     4741     4753
     3547        9        9        9        0     4505     4498     4497     4504     4745     4742     4743     4754
     3548        9        9        9        0     4506     4499     4498     4505     4747     4744     4745     4755
     3549        9        9        9        0     4507     4500     4499     4506     4749     4746     4747     4756
     3550        9        9        9        0     4508     4501     4500     4507     4751     4748     4749     4757
     3551        9        9        9        0     4509     4502     4501     4508     4752     4750     4751     4758
     3552        9        9        9        0     4489     4488     4502     4509     4728     4729     4752     4730
     3553        9        9        9        0     4496     4444     4453     4495     4651     4650     4669     4739
     3554        9        9        9        0     4497     4445     4444     4496     4653     4649     4651     4740
     3555        9        9        9        0     4498     4446     4445     4497     4655     4652     4653     4742
     3556        9        9        9        0     4499     4447     4446     4498     4657     4654     4655     4744
     3557        9        9        9        0     4500     4448     4447     4499     4659     4656     4657     4746
     3558        9        9        9        0     4501     4449     4448     4500     4661     4658     4659     4748
     3559        9        9        9        0     4502     4450     4449     4501     4663     4660     4661     4750
     3560        9        9        9        0     4488     4454     4450     4502     4671     4662     4663     4729
-1
eblock,10,,,16
(15i9)
     3561        8        8        8        0     4503     4496     4495     4494     4741     4739     4737     4738
     3562        8        8        8        0     4504     4497     4496     4503     4743     4740     4741     4753
     3563        8        8        8        0     4505     4498     4497     4504     4745     4742     4743     4754
     3564        8        8        8        0     4506     4499     4498     4505     4747     4744     4745     4755
     3565        8        8        8        0     4507     4500     4499     4506     4749     4746     4747     4756
     3566        8        8        8        0     4508     4501     4500     4507     4751     4748     4749     4757
     3567        8        8        8        0     4509     4502     4501     4508     4752     4750     4751     4758
     3568        8        8        8        0     4489     4488     4502     4509     4728     4729     4752     4730
     3569        8        8        8        0     4496     4444     4453     4495     4651     4650     4669     4739
     3570        8        8        8        0     4497     4445     4444     4496     4653     4649     4651     4740
     3571        8        8        8        0     4498     4446     4445     4497     4655     4652     4653     4742
     3572        8        8        8        0     4499     4447     4446     4498     4657     4654     4655     4744
     3573        8        8        8        0     4500     4448     4447     4499     4659     4656     4657     4746
     3574        8        8        8        0     4501     4449     4448     4500     4661     4658     4659     4748
     3575        8        8        8        0     4502     4450     4449     4501     4663     4660     4661     4750
     3576        8        8        8        0     4488     4454     4450     4502     4671     4662     4663     4729
-1
eblock,10,,,7
(15i9)
     3577        8        9        8        0     1012     1186     1148     1148     3171     3740     1148     3169
     3578        8        9        8        0     1012     1183     1186     1186     3170     3919     1186     3171
     3579        8        9        8        0     1183     1192     1187     1187     3922     3948     1187     3920
     3580        8        9        8        0     1012     1018     1183     1183     3168     3224     1183     3170
     3581        8        9        8        0     1012     1015     1018     1018     3167     3192     1018     3168
     3582        8        9        8        0     1018     1158     1192     1192     3223     3792     1192     3225
     3583        8        9        8        0     1018     1192     1183     1183     3225     3922     1183     3224
-1
eblock,10,,,7
(15i9)
     3584        9        8        9        0     1012     1186     1148     1148     3171     3740     1148     3169
     3585        9        8        9        0     1012     1183     1186     1186     3170     3919     1186     3171
     3586        9        8        9        0     1183     1192     1187     1187     3922     3948     1187     3920
     3587        9        8        9        0     1012     1018     1183     1183     3168     3224     1183     3170
     3588        9        8        9        0     1012     1015     1018     1018     3167     3192     1018     3168
     3589        9        8        9        0     1018     1158     1192     1192     3223     3792     1192     3225
     3590        9        8        9        0     1018     1192     1183     1183     3225     3922     1183     3224
-1
keyo,cid,8,2               ! auto create asymmetric contact (from Program Controlled setting)
keyo,cid,10,0              ! adjust contact stiffness each NR iteration (from Program Controlled setting)
keyo,cid,12,5              ! bonded always
keyo,cid,18,1              ! small sliding turned on by application
keyo,cid,2,0               ! augmented Lagrange (from Program Controlled setting)
keyo,cid,4,0               ! on Gauss point (from Program Controlled setting)
keyo,cid,9,1               ! ignore initial gaps/penetration
keyo,cid,7,0               ! No Prediction
rmod,tid,3,10.      ! FKN
rmod,tid,5,0.       ! ICONT
rmod,tid,6,0.       ! PINB
rmod,tid,10,0.      ! CNOF
rmod,tid,12,0.      ! FKT
rmod,tid,36,39      ! WB DSID
rmod,cid,3,10.      ! FKN
rmod,cid,5,0.       ! ICONT
rmod,cid,6,0.       ! PINB
rmod,cid,10,0.      ! CNOF
rmod,cid,12,0.      ! FKT
rmod,cid,36,39      ! WB DSID
/com,*********** Create Contact "Contact Region 3" ***********
/com,            Real Constant Set For Above Contact Is 11 & 10 
*set,tid,11
*set,cid,10
r,tid
r,cid
et,tid,170
et,cid,174
eblock,10,,,16
(15i9)
     3591       11       11       11        0     4851     4853     4866     4852     5095     5098     5096     5094
     3592       11       11       11        0     4808     4807     4853     4851     5019     5020     5095     5022
     3593       11       11       11        0     4853     4854     4865     4866     5097     5100     5115     5098
     3594       11       11       11        0     4807     4806     4854     4853     5017     5018     5097     5020
     3595       11       11       11        0     4854     4855     4864     4865     5099     5102     5114     5100
     3596       11       11       11        0     4806     4805     4855     4854     5015     5016     5099     5018
     3597       11       11       11        0     4855     4856     4863     4864     5101     5104     5113     5102
     3598       11       11       11        0     4805     4804     4856     4855     5013     5014     5101     5016
     3599       11       11       11        0     4856     4857     4862     4863     5103     5106     5112     5104
     3600       11       11       11        0     4804     4803     4857     4856     5011     5012     5103     5014
     3601       11       11       11        0     4857     4858     4861     4862     5105     5108     5111     5106
     3602       11       11       11        0     4803     4802     4858     4857     5009     5010     5105     5012
     3603       11       11       11        0     4858     4859     4860     4861     5107     5109     5110     5108
     3604       11       11       11        0     4802     4801     4859     4858     5006     5008     5107     5010
     3605       11       11       11        0     4859     4846     4845     4860     5087     5085     5086     5109
     3606       11       11       11        0     4801     4811     4846     4859     5007     5028     5087     5008
-1
eblock,10,,,16
(15i9)
     3607       10       10       10        0     4851     4853     4866     4852     5095     5098     5096     5094
     3608       10       10       10        0     4808     4807     4853     4851     5019     5020     5095     5022
     3609       10       10       10        0     4853     4854     4865     4866     5097     5100     5115     5098
     3610       10       10       10        0     4807     4806     4854     4853     5017     5018     5097     5020
     3611       10       10       10        0     4854     4855     4864     4865     5099     5102     5114     5100
     3612       10       10       10        0     4806     4805     4855     4854     5015     5016     5099     5018
     3613       10       10       10        0     4855     4856     4863     4864     5101     5104     5113     5102
     3614       10       10       10        0     4805     4804     4856     4855     5013     5014     5101     5016
     3615       10       10       10        0     4856     4857     4862     4863     5103     5106     5112     5104
     3616       10       10       10        0     4804     4803     4857     4856     5011     5012     5103     5014
     3617       10       10       10        0     4857     4858     4861     4862     5105     5108     5111     5106
     3618       10       10       10        0     4803     4802     4858     4857     5009     5010     5105     5012
     3619       10       10       10        0     4858     4859     4860     4861     5107     5109     5110     5108
     3620       10       10       10        0     4802     4801     4859     4858     5006     5008     5107     5010
     3621       10       10       10        0     4859     4846     4845     4860     5087     5085     5086     5109
     3622       10       10       10        0     4801     4811     4846     4859     5007     5028     5087     5008
-1
eblock,10,,,7
(15i9)
     3623       10       11       10        0      999     1144     1186     1186     3083     3726     1186     3085
     3624       10       11       10        0      999     1186     1183     1183     3085     3919     1183     3084
     3625       10       11       10        0      990      993      999      999     3017     3038      999     3018
     3626       10       11       10        0      990      999     1183     1183     3018     3084     1183     3021
     3627       10       11       10        0     1183     1187     1189     1189     3920     3947     1189     3921
     3628       10       11       10        0      990     1183     1189     1189     3021     3921     1189     3022
     3629       10       11       10        0      990     1189     1131     1131     3022     3675     1131     3019
-1
eblock,10,,,7
(15i9)
     3630       11       10       11        0      999     1144     1186     1186     3083     3726     1186     3085
     3631       11       10       11        0      999     1186     1183     1183     3085     3919     1183     3084
     3632       11       10       11        0      990      993      999      999     3017     3038      999     3018
     3633       11       10       11        0      990      999     1183     1183     3018     3084     1183     3021
     3634       11       10       11        0     1183     1187     1189     1189     3920     3947     1189     3921
     3635       11       10       11        0      990     1183     1189     1189     3021     3921     1189     3022
     3636       11       10       11        0      990     1189     1131     1131     3022     3675     1131     3019
-1
keyo,cid,8,2               ! auto create asymmetric contact (from Program Controlled setting)
keyo,cid,10,0              ! adjust contact stiffness each NR iteration (from Program Controlled setting)
keyo,cid,12,5              ! bonded always
keyo,cid,18,1              ! small sliding turned on by application
keyo,cid,2,0               ! augmented Lagrange (from Program Controlled setting)
keyo,cid,4,0               ! on Gauss point (from Program Controlled setting)
keyo,cid,9,1               ! ignore initial gaps/penetration
keyo,cid,7,0               ! No Prediction
rmod,tid,3,10.      ! FKN
rmod,tid,5,0.       ! ICONT
rmod,tid,6,0.       ! PINB
rmod,tid,10,0.      ! CNOF
rmod,tid,12,0.      ! FKT
rmod,tid,36,42      ! WB DSID
rmod,cid,3,10.      ! FKN
rmod,cid,5,0.       ! ICONT
rmod,cid,6,0.       ! PINB
rmod,cid,10,0.      ! CNOF
rmod,cid,12,0.      ! FKT
rmod,cid,36,42      ! WB DSID
/com,*********** Create Contact "Contact Region 4" ***********
/com,            Real Constant Set For Above Contact Is 13 & 12 
*set,tid,13
*set,cid,12
r,tid
r,cid
et,tid,170
et,cid,174
eblock,10,,,7
(15i9)
     3637       13       13       13        0      974      978     1184     1184     2897     2922     1184     2899
     3638       13       13       13        0      971      978      974      974     2865     2897      974     2863
     3639       13       13       13        0     1184     1190     1188     1188     3931     3953     1188     3930
     3640       13       13       13        0      974     1184     1185     1185     2899     3929     1185     2900
     3641       13       13       13        0      974     1185     1160     1160     2900     3803     1160     2898
     3642       13       13       13        0      978     1130     1190     1190     2921     3667     1190     2923
     3643       13       13       13        0      978     1190     1184     1184     2923     3931     1184     2922
-1
eblock,10,,,7
(15i9)
     3644       12       12       12        0      974      978     1184     1184     2897     2922     1184     2899
     3645       12       12       12        0      971      978      974      974     2865     2897      974     2863
     3646       12       12       12        0     1184     1190     1188     1188     3931     3953     1188     3930
     3647       12       12       12        0      974     1184     1185     1185     2899     3929     1185     2900
     3648       12       12       12        0      974     1185     1160     1160     2900     3803     1160     2898
     3649       12       12       12        0      978     1130     1190     1190     2921     3667     1190     2923
     3650       12       12       12        0      978     1190     1184     1184     2923     3931     1184     2922
-1
eblock,10,,,16
(15i9)
     3651       12       13       12        0      102       95       94       93      340      338      336      337
     3652       12       13       12        0      103       96       95      102      342      339      340      352
     3653       12       13       12        0      104       97       96      103      344      341      342      353
     3654       12       13       12        0      105       98       97      104      346      343      344      354
     3655       12       13       12        0      106       99       98      105      348      345      346      355
     3656       12       13       12        0      107      100       99      106      350      347      348      356
     3657       12       13       12        0      108      101      100      107      351      349      350      357
     3658       12       13       12        0       88       87      101      108      327      328      351      329
     3659       12       13       12        0       95       43       52       94      250      249      268      338
     3660       12       13       12        0       96       44       43       95      252      248      250      339
     3661       12       13       12        0       97       45       44       96      254      251      252      341
     3662       12       13       12        0       98       46       45       97      256      253      254      343
     3663       12       13       12        0       99       47       46       98      258      255      256      345
     3664       12       13       12        0      100       48       47       99      260      257      258      347
     3665       12       13       12        0      101       49       48      100      262      259      260      349
     3666       12       13       12        0       87       53       49      101      270      261      262      328
-1
eblock,10,,,16
(15i9)
     3667       13       12       13        0      102       95       94       93      340      338      336      337
     3668       13       12       13        0      103       96       95      102      342      339      340      352
     3669       13       12       13        0      104       97       96      103      344      341      342      353
     3670       13       12       13        0      105       98       97      104      346      343      344      354
     3671       13       12       13        0      106       99       98      105      348      345      346      355
     3672       13       12       13        0      107      100       99      106      350      347      348      356
     3673       13       12       13        0      108      101      100      107      351      349      350      357
     3674       13       12       13        0       88       87      101      108      327      328      351      329
     3675       13       12       13        0       95       43       52       94      250      249      268      338
     3676       13       12       13        0       96       44       43       95      252      248      250      339
     3677       13       12       13        0       97       45       44       96      254      251      252      341
     3678       13       12       13        0       98       46       45       97      256      253      254      343
     3679       13       12       13        0       99       47       46       98      258      255      256      345
     3680       13       12       13        0      100       48       47       99      260      257      258      347
     3681       13       12       13        0      101       49       48      100      262      259      260      349
     3682       13       12       13        0       87       53       49      101      270      261      262      328
-1
keyo,cid,8,2               ! auto create asymmetric contact (from Program Controlled setting)
keyo,cid,10,0              ! adjust contact stiffness each NR iteration (from Program Controlled setting)
keyo,cid,12,5              ! bonded always
keyo,cid,18,1              ! small sliding turned on by application
keyo,cid,2,0               ! augmented Lagrange (from Program Controlled setting)
keyo,cid,4,0               ! on Gauss point (from Program Controlled setting)
keyo,cid,9,1               ! ignore initial gaps/penetration
keyo,cid,7,0               ! No Prediction
rmod,tid,3,10.      ! FKN
rmod,tid,5,0.       ! ICONT
rmod,tid,6,0.       ! PINB
rmod,tid,10,0.      ! CNOF
rmod,tid,12,0.      ! FKT
rmod,tid,36,45      ! WB DSID
rmod,cid,3,10.      ! FKN
rmod,cid,5,0.       ! ICONT
rmod,cid,6,0.       ! PINB
rmod,cid,10,0.      ! CNOF
rmod,cid,12,0.      ! FKT
rmod,cid,36,45      ! WB DSID
nsel,all
esel,all
/wb,contact,end            !  done creating contacts
/golist
/wb,load,start             !  starting to send loads
/com,*********** Fixed Supports ***********
CMBLOCK,_FIXEDSU,NODE,      295
(8i10)
       715       718       719       720       721       722       735       737
       738       739       740       741       746       748       753       755
       759       760       761       762       763       770       774       775
       791       795       797       801       827       828       829       830
       831       832       833       834       835       836       837       838
       839       840       841       842       843       844       845       846
       847       848       849       850       851       852       853       854
       855       856       857       858       859       860       861       862
      1037      1038      1039      1040      1057      1058      1059      1060
      1089      1090      1091      1092      1093      1094      1095      1096
      1170      1171      1172      1173      1174      1175      1176      1177
      1178      1179      1180      1181      1182      1343      1345      1347
      1361      1362      1364      1365      1369      1370      1371      1372
      1375      1378      1380      1382      1385      1386      1390      1391
      1392      1393      1473      1475      1477      1486      1487      1489
      1490      1492      1493      1494      1495      1498      1499      1501
      1504      1505      1507      1509      1510      1511      1512      1537
      1539      1540      1541      1550      1576      1577      1578      1579
      1587      1588      1609      1610      1611      1612      1614      1618
      1620      1621      1622      1623      1624      1627      1629      1634
! ... 17 like lines cut
cmsel,s,_FIXEDSU
d,all,all
nsel,all
/com,*********** Define Force Using Surface Effect Elements ***********
local,12,0,0.,0.,0.,0.,0.,0.
csys,0
et,14,154
eblock,10,,,62
(15i9)
     3683       14       14       14       12     1004     1006     1013     1013     3117     3134     1013     3118
     3684       14       14       14       12     1025     1026     1188     1188     3272     3284     1188     3276
     3685       14       14       14       12     1027     1031     1028     1028     3295     3299     1028     3293
     3686       14       14       14       12     1031     1032     1185     1185     3314     3327     1185     3316
     3687       14       14       14       12     1013     1014     1186     1186     3173     3187     1186     3175
     3688       14       14       14       12      984      990     1131     1131     2963     3019     1131     2965
     3689       14       14       14       12      956     1159      963      963     2763     2799      963     2761
     3690       14       14       14       12     1012     1186     1148     1148     3171     3740     1148     3169
     3691       14       14       14       12     1003     1186     1144     1144     3111     3726     1144     3109
     3692       14       14       14       12      999     1144     1186     1186     3083     3726     1186     3085
     3693       14       14       14       12     1024     1025     1187     1187     3264     3275     1187     3266
     3694       14       14       14       12      986      987     1187     1187     2983     2993     1187     2984
     3695       14       14       14       12     1003     1004     1186     1186     3107     3121     1186     3111
     3696       14       14       14       12      999     1186     1183     1183     3085     3919     1183     3084
     3697       14       14       14       12     1004     1013     1186     1186     3118     3175     1186     3121
     3698       14       14       14       12     1012     1183     1186     1186     3170     3919     1186     3171
     3699       14       14       14       12     1005     1013     1006     1006     3129     3134     1006     3127
     3700       14       14       14       12     1014     1148     1186     1186     3186     3740     1186     3187
     3701       14       14       14       12      974      978     1184     1184     2897     2922     1184     2899
     3702       14       14       14       12      971      978      974      974     2865     2897      974     2863
! ... 43 like lines cut
esel,s,type,,14
keyop,14,2,1                ! Apply load in local coordinate system
keyop,14,7,1                ! Use original area so load is constant in large deformation
keyop,14,11,2               ! Use real and not project area
esel,all
/com,*********** Define Force Using Surface Effect Elements ***********
local,13,0,0.,0.,0.,0.,0.,0.
csys,0
et,15,154
eblock,10,,,4
(15i9)
     3745       15       15       15       13      779      784      781      781     1719     1737      781     1718
     3746       15       15       15       13      784      783      781      781     1750     1736      781     1737
     3747       15       15       15       13      781      783      782      782     1736     1743      782     1735
     3748       15       15       15       13      782      783      780      780     1743     1727      780     1726
-1
esel,s,type,,15
keyop,15,2,1                ! Apply load in local coordinate system
keyop,15,7,1                ! Use original area so load is constant in large deformation
keyop,15,11,2               ! Use real and not project area
esel,all
/com,*********** Define Force Using Surface Effect Elements ***********
local,14,0,0.,0.,0.,0.,0.,0.
csys,0
et,16,154
eblock,10,,,4
(15i9)
     3749       16       16       16       14      785      790      787      787     1764     1781      787     1763
     3750       16       16       16       14      787      789      788      788     1780     1792      788     1779
     3751       16       16       16       14      788      789      786      786     1792     1772      786     1771
     3752       16       16       16       14      790      789      787      787     1798     1780      787     1781
-1
esel,s,type,,16
keyop,16,2,1                ! Apply load in local coordinate system
keyop,16,7,1                ! Use original area so load is constant in large deformation
keyop,16,11,2               ! Use real and not project area
esel,all
/gst,on,on
fini
*get,_numnode,node,0,count
*get,_numelem,elem,0,count
*get, _MAXELEMNUM, elem, 0, NUM, MAX
*get, _MAXNODENUM, node, 0, NUM, MAX
*get, _MAXELEMTYPE, etyp, 0, NUM, MAX
*get, _MAXREALCONST, real, 0, NUM, MAX
/go
/wb,load,end               !  done creating loads
/com,--- Number of total nodes = %_numnode%
/com,--- Number of contact elements = 254
/com,--- Number of spring elements = 0
/com,--- Number of bearing elements = 0
/com,--- Number of solid elements = 2114
/com,--- Number of condensed parts = 0
/com,--- Number of total elements = %_numelem%
*get,_wallbsol,active,,time,wall
/com,****************************************************************************
/com,*************************    SOLUTION       ********************************
/com,****************************************************************************
/solu
antype,0                   ! static analysis
_thickRatio=  0     ! Ratio of thick parts in the model
eqsl,sparse,,,,,1
cntr,print,1               ! print out contact info and also make no initial contact an error
dmpoption,emat,no             ! Don't combine emat file for DANSYS
dmpoption,esav,no             ! Don't combine esav file for DANSYS
nldiag,cont,iter           ! print out contact info each equilibrium iteration
rescontrol,,none                 ! Do not keep any restart files
/com,****************************************************
/com,******************* SOLVE FOR LS 1 OF 1 ****************
esel,s,type,,14
nsle
sfe,all,1,pres,1,0.
sfe,all,2,pres,1,0.
sfe,all,3,pres,1,-4.15385147876298
esel,s,type,,15
nsle
sfe,all,1,pres,1,0.
sfe,all,2,pres,1,0.
sfe,all,3,pres,1,-415.902985572323
esel,s,type,,16
nsle
sfe,all,1,pres,1,0.
sfe,all,2,pres,1,0.
sfe,all,3,pres,1,-415.902985572324
nsel,all
esel,all
/nopr
/gopr
nsub,1,1,1
time,1.
outres,erase
outres,all,none
outres,nsol,all,
outres,rsol,all
outres,eangl,all
outres,etmp,all
outres,veng,all
outres,strs,all,
outres,epel,all,
outres,eppl,all,
outres,cont,all,
! *********** WB SOLVE COMMAND ***********
! check interactive state
*get,ANSINTER_,active,,int
*if,ANSINTER_,ne,0,then
/eof
*endif
solve
/com *************** Write FE CONNECTORS ********* 
CEWRITE,file,ce,,INTE
/com,****************************************************
/com,*************** FINISHED SOLVE FOR LS 1 *************
*get,_wallasol,active,,time,wall
/nopr
*get,_numnode,node,0,count
*get,_numelem,elem,0,count
*get, _MAXELEMNUM, elem, 0, NUM, MAX
*get, _MAXNODENUM, node, 0, NUM, MAX,,,INTERNAL
*get, _MAXELEMTYPE, etyp, 0, NUM, MAX
*get, _MAXREALCONST, real, 0, NUM, MAX
/gopr
/post1
xmlo,ENCODING,ISO-8859-1
xmlo,parm
/xml,parm,xml
fini
/gopr
*get,_walldone,active,,time,wall
_preptime=(_wallbsol-_wallstrt)*3600
_solvtime=(_wallasol-_wallbsol)*3600
_posttime=(_walldone-_wallasol)*3600
_totaltim=(_walldone-_wallstrt)*3600
*get,_dlbratio,active,0,solu,dlbr
*get,_combtime,active,0,solu,comb
/com,--- Number of total nodes = %_numnode%
/com,--- Number of total elements = %_numelem%
/com,--- Element load balance ratio = %_dlbratio%
/com,--- Time to combine distributed files = %_combtime%
/wb,file,end               ! done with WB generated input
